<?xml version="1.0" encoding="UTF-8"?>
<additional xmlns:xsi="http://www.w3.org/2001/XMLSchema-instance" xsi:noNamespaceSchemaLocation="http://sumo.dlr.de/xsd/additional_file.xsd">
    <e3Detector id="bottom" pos="1259.70,937.66" freq="300.00" file="e3out.xml">
        <detExit lane="941902178_0" pos="-1.00"/>
        <detExit lane="515235349#1.289_0" pos="-1.00"/>
        <detExit lane="515235349#1.289_1" pos="-1.00"/>
        <detExit lane="515235349#1.289_2" pos="-1.00"/>
        <detExit lane="515235349#1.289_3" pos="-1.00"/>
        <detExit lane="515235349#1.289_4" pos="-1.00"/>
        <detEntry lane="515235349#1_3" pos="200.00"/>
        <detEntry lane="515235349#1_2" pos="200.00"/>
        <detEntry lane="515235349#1_1" pos="200.00"/>
        <detEntry lane="515235349#1_0" pos="200.00"/>
    </e3Detector>
    <e3Detector id="left" pos="1198.74,969.39" freq="300.00" file="e3out.xml">
        <detExit lane="109505014#6.100_0" pos="-1.00"/>
        <detExit lane="109505014#6.100_1" pos="-1.00"/>
        <detExit lane="109505014#6.100_2" pos="-1.00"/>
        <detEntry lane="109505014#6.39_2" pos="33.46"/>
        <detEntry lane="109505014#6.39_1" pos="33.93"/>
        <detEntry lane="109505014#6.39_0" pos="34.77"/>
    </e3Detector>
    <e3Detector id="right" pos="1282.48,982.76" freq="300.00" file="e3out.xml">
        <detExit lane="886398488#4_0" pos="-1.00"/>
        <detExit lane="886398488#4_1" pos="-1.00"/>
        <detExit lane="886398488#4_2" pos="-1.00"/>
        <detEntry lane="886398488#4_0" pos="200.00"/>
        <detEntry lane="886398488#4_1" pos="200.00"/>
        <detEntry lane="886398488#4_2" pos="200.00"/>
    </e3Detector>
    <e3Detector id="top" pos="1218.86,1008.41" freq="300.00" file="e3out.xml">
        <detExit lane="941902179#2.220_0" pos="-1.00"/>
        <detExit lane="941902179#2.220_1" pos="-1.00"/>
        <detExit lane="886398487#2.123_0" pos="-1.00"/>
        <detExit lane="886398487#2.123_1" pos="-1.00"/>
        <detExit lane="886398487#2.123_2" pos="-1.00"/>
        <detExit lane="886398487#2.123_3" pos="-1.00"/>
        <detEntry lane="886398487#2.123_0" pos="30.62"/>
        <detEntry lane="886398487#2.123_1" pos="30.10"/>
        <detEntry lane="886398487#2.123_2" pos="29.80"/>
        <detEntry lane="886398487#2.123_3" pos="29.70"/>
    </e3Detector>
</additional>
