<additional>
    <taz id="bottom">
        <tazSource id="bottom0" weight="1.00"/>
        <tazSink id="bottom1" weight="1.00"/>
    </taz>
    <taz id="left">
        <tazSource id="left0" weight="1.00"/>
        <tazSink id="left1" weight="1.00"/>
    </taz>
    <taz id="right">
        <tazSource id="right0" weight="1.00"/>
        <tazSink id="right1" weight="1.00"/>
    </taz>
    <taz id="top">
        <tazSource id="top0" weight="1.00"/>
        <tazSink id="top1" weight="1.00"/>
        <tazSource id="top2" weight="1.00"/>
        <tazSink id="top3" weight="1.00"/>
    </taz>
</additional>
