<?xml version="1.0" encoding="UTF-8"?>

<net version="1.6" junctionCornerDetail="5" limitTurnSpeed="5.50" xmlns:xsi="http://www.w3.org/2001/XMLSchema-instance" xsi:noNamespaceSchemaLocation="http://sumo.dlr.de/xsd/net_file.xsd">

    <location netOffset="-256058.17,-2677904.83" convBoundary="243.82,0.00,2087.47,1948.96" origBoundary="120.596956,24.195076,120.635275,24.226007" projParameter="+proj=utm +zone=51 +ellps=WGS84 +datum=WGS84 +units=m +no_defs"/>

    <type id="highway.bridleway" priority="1" numLanes="1" speed="2.78" allow="pedestrian" oneway="1" width="2.00"/>
    <type id="highway.bus_guideway" priority="1" numLanes="1" speed="27.78" allow="bus" oneway="1"/>
    <type id="highway.cycleway" priority="1" numLanes="1" speed="8.33" allow="bicycle" oneway="1" width="1.00"/>
    <type id="highway.footway" priority="1" numLanes="1" speed="2.78" allow="pedestrian" oneway="1" width="2.00"/>
    <type id="highway.ford" priority="1" numLanes="1" speed="2.78" allow="army" oneway="1"/>
    <type id="highway.living_street" priority="2" numLanes="1" speed="2.78" disallow="tram rail_urban rail rail_electric rail_fast ship" oneway="1"/>
    <type id="highway.motorway" priority="14" numLanes="2" speed="39.44" allow="private emergency authority army vip passenger hov taxi bus coach delivery truck trailer motorcycle evehicle custom1 custom2" oneway="1"/>
    <type id="highway.motorway_link" priority="9" numLanes="1" speed="22.22" allow="private emergency authority army vip passenger hov taxi bus coach delivery truck trailer motorcycle evehicle custom1 custom2" oneway="1"/>
    <type id="highway.path" priority="1" numLanes="1" speed="2.78" allow="pedestrian bicycle" oneway="1" width="2.00"/>
    <type id="highway.pedestrian" priority="1" numLanes="1" speed="2.78" allow="pedestrian" oneway="1" width="2.00"/>
    <type id="highway.primary" priority="12" numLanes="2" speed="27.78" disallow="tram rail_urban rail rail_electric rail_fast ship" oneway="1"/>
    <type id="highway.primary_link" priority="7" numLanes="1" speed="22.22" disallow="tram rail_urban rail rail_electric rail_fast ship" oneway="1"/>
    <type id="highway.raceway" priority="15" numLanes="2" speed="83.33" allow="vip" oneway="1"/>
    <type id="highway.residential" priority="3" numLanes="1" speed="13.89" disallow="tram rail_urban rail rail_electric rail_fast ship" oneway="1"/>
    <type id="highway.secondary" priority="11" numLanes="1" speed="27.78" disallow="tram rail_urban rail rail_electric rail_fast ship" oneway="1"/>
    <type id="highway.secondary_link" priority="6" numLanes="1" speed="22.22" disallow="tram rail_urban rail rail_electric rail_fast ship" oneway="1"/>
    <type id="highway.service" priority="1" numLanes="1" speed="5.56" allow="pedestrian delivery bicycle" oneway="1"/>
    <type id="highway.stairs" priority="1" numLanes="1" speed="1.39" allow="pedestrian" oneway="1" width="2.00"/>
    <type id="highway.step" priority="1" numLanes="1" speed="1.39" allow="pedestrian" oneway="1" width="2.00"/>
    <type id="highway.steps" priority="1" numLanes="1" speed="1.39" allow="pedestrian" oneway="1" width="2.00"/>
    <type id="highway.tertiary" priority="10" numLanes="1" speed="22.22" disallow="tram rail_urban rail rail_electric rail_fast ship" oneway="1"/>
    <type id="highway.tertiary_link" priority="5" numLanes="1" speed="22.22" disallow="tram rail_urban rail rail_electric rail_fast ship" oneway="1"/>
    <type id="highway.track" priority="1" numLanes="1" speed="5.56" allow="pedestrian motorcycle moped bicycle" oneway="1"/>
    <type id="highway.trunk" priority="13" numLanes="2" speed="27.78" disallow="pedestrian bicycle tram rail_urban rail rail_electric rail_fast ship" oneway="1"/>
    <type id="highway.trunk_link" priority="8" numLanes="1" speed="22.22" disallow="pedestrian bicycle tram rail_urban rail rail_electric rail_fast ship" oneway="1"/>
    <type id="highway.unclassified" priority="4" numLanes="1" speed="13.89" disallow="tram rail_urban rail rail_electric rail_fast ship" oneway="1"/>
    <type id="highway.unsurfaced" priority="1" numLanes="1" speed="8.33" disallow="tram rail_urban rail rail_electric rail_fast ship" oneway="1"/>
    <type id="railway.highspeed" priority="21" numLanes="1" speed="69.44" allow="rail_fast" oneway="1"/>
    <type id="railway.light_rail" priority="19" numLanes="1" speed="27.78" allow="rail_urban" oneway="1"/>
    <type id="railway.preserved" priority="16" numLanes="1" speed="27.78" allow="rail" oneway="1"/>
    <type id="railway.rail" priority="20" numLanes="1" speed="44.44" allow="rail" oneway="1"/>
    <type id="railway.subway" priority="18" numLanes="1" speed="27.78" allow="rail_urban" oneway="1"/>
    <type id="railway.tram" priority="17" numLanes="1" speed="13.89" allow="tram" oneway="1"/>

    <edge id=":1813845494_0" function="internal">
        <lane id=":1813845494_0_0" index="0" allow="pedestrian delivery bicycle" speed="7.97" length="10.98" shape="1037.68,997.64 1037.57,1002.10 1037.73,1005.37 1038.16,1007.45 1038.85,1008.33"/>
    </edge>
    <edge id=":1813845494_1" function="internal">
        <lane id=":1813845494_1_0" index="0" allow="motorcycle moped" speed="13.89" length="11.17" shape="1030.64,999.24 1033.19,1001.38 1034.94,1002.88 1036.86,1004.08 1039.90,1005.31"/>
    </edge>
    <edge id=":1813845494_2" function="internal">
        <lane id=":1813845494_2_0" index="0" allow="pedestrian delivery bicycle" speed="5.79" length="4.16" shape="1028.67,1001.76 1031.06,1003.08 1032.47,1002.87"/>
    </edge>
    <edge id=":1813845494_3" function="internal">
        <lane id=":1813845494_3_0" index="0" disallow="tram rail_urban rail rail_electric rail_fast ship" speed="13.89" length="12.76" shape="1028.67,1001.76 1031.47,1004.09 1033.40,1005.70 1035.52,1006.99 1038.85,1008.33"/>
        <lane id=":1813845494_3_1" index="1" disallow="tram rail_urban rail rail_electric rail_fast ship" speed="13.89" length="12.76" shape="1026.70,1004.28 1029.74,1006.80 1031.86,1008.53 1034.17,1009.91 1037.80,1011.35"/>
    </edge>
    <edge id=":1813845494_5" function="internal">
        <lane id=":1813845494_5_0" index="0" allow="pedestrian delivery bicycle" speed="5.79" length="6.04" shape="1032.47,1002.87 1032.82,1002.81 1033.96,1000.95 1034.48,997.49"/>
    </edge>
    <edge id=":1818466980_0" function="internal">
        <lane id=":1818466980_0_0" index="0" disallow="tram rail_urban rail rail_electric rail_fast ship" speed="3.65" length="4.67" shape="642.61,574.34 642.66,572.90 643.12,572.13 644.01,572.05 645.33,572.64"/>
    </edge>
    <edge id=":1818467031_0" function="internal">
        <lane id=":1818467031_0_0" index="0" disallow="tram rail_urban rail rail_electric rail_fast ship" speed="3.65" length="4.67" shape="1019.23,1224.25 1018.87,1225.64 1018.24,1226.28 1017.36,1226.17 1016.21,1225.29"/>
    </edge>
    <edge id=":1818467032_0" function="internal">
        <lane id=":1818467032_0_0" index="0" disallow="tram rail_urban rail rail_electric rail_fast ship" speed="3.65" length="4.67" shape="838.90,1224.24 838.57,1225.65 837.97,1226.31 837.08,1226.22 835.90,1225.38"/>
    </edge>
    <edge id=":3649478943_0" function="internal">
        <lane id=":3649478943_0_0" index="0" allow="pedestrian delivery bicycle" speed="4.99" length="5.06" shape="264.32,926.74 263.01,926.24 262.21,925.45 261.89,924.36 262.07,922.97"/>
    </edge>
    <edge id=":4404450097_0" function="internal">
        <lane id=":4404450097_0_0" index="0" allow="motorcycle moped" speed="6.52" length="8.50" shape="1115.61,1043.78 1114.86,1041.60 1113.59,1040.12 1111.80,1039.35 1109.50,1039.28"/>
    </edge>
    <edge id=":4404450097_1" function="internal">
        <lane id=":4404450097_1_0" index="0" disallow="tram rail_urban rail rail_electric rail_fast ship" speed="3.65" length="4.67" shape="1115.61,1043.78 1116.17,1042.45 1116.88,1041.90 1117.74,1042.14 1118.75,1043.17"/>
    </edge>
    <edge id=":4404450097_2" function="internal">
        <lane id=":4404450097_2_0" index="0" allow="motorcycle moped" speed="6.73" length="8.64" shape="1122.53,1036.34 1120.50,1037.40 1119.20,1038.89 1118.61,1040.81 1118.75,1043.17"/>
    </edge>
    <edge id=":4404450097_3" function="internal">
        <lane id=":4404450097_3_0" index="0" disallow="tram rail_urban rail rail_electric rail_fast ship" speed="16.95" length="12.30" shape="1121.46,1033.32 1117.91,1034.55 1115.43,1035.24 1112.88,1035.67 1109.15,1036.10"/>
        <lane id=":4404450097_3_1" index="1" disallow="tram rail_urban rail rail_electric rail_fast ship" speed="16.95" length="12.30" shape="1120.40,1030.31 1117.05,1031.46 1114.71,1032.11 1112.32,1032.52 1108.80,1032.92"/>
    </edge>
    <edge id=":4422737504_0" function="internal">
        <lane id=":4422737504_0_0" index="0" allow="pedestrian delivery bicycle" speed="3.65" length="4.67" shape="1712.15,542.60 1712.56,541.21 1713.20,540.59 1714.09,540.74 1715.21,541.64"/>
    </edge>
    <edge id=":4422737510_0" function="internal">
        <lane id=":4422737510_0_0" index="0" allow="pedestrian delivery bicycle" speed="4.15" length="1.33" shape="2005.64,692.21 2005.33,692.07 2005.01,692.00 2004.68,692.01 2004.35,692.09"/>
    </edge>
    <edge id=":4422737510_1" function="internal">
        <lane id=":4422737510_1_0" index="0" disallow="tram rail_urban rail rail_electric rail_fast ship" speed="3.65" length="4.67" shape="2005.64,692.21 2004.98,690.92 2005.02,690.03 2005.76,689.52 2007.19,689.41"/>
    </edge>
    <edge id=":4422737510_2" function="internal">
        <lane id=":4422737510_2_0" index="0" allow="pedestrian delivery bicycle" speed="6.55" length="4.00" shape="2003.33,689.06 2004.32,688.82 2005.30,688.81 2006.26,689.00 2007.19,689.41"/>
    </edge>
    <edge id=":4422737510_3" function="internal">
        <lane id=":4422737510_3_0" index="0" allow="pedestrian delivery bicycle" speed="3.65" length="4.67" shape="2003.33,689.06 2004.72,689.43 2005.36,690.06 2005.23,690.95 2004.35,692.09"/>
    </edge>
    <edge id=":4422737523_0" function="internal">
        <lane id=":4422737523_0_0" index="0" allow="pedestrian delivery bicycle" speed="5.56" length="8.32" shape="1786.93,767.84 1786.65,765.39 1786.34,763.73 1785.86,762.11 1785.04,759.78"/>
    </edge>
    <edge id=":4422737523_1" function="internal">
        <lane id=":4422737523_1_0" index="0" allow="pedestrian delivery bicycle" speed="5.56" length="9.63" shape="1786.93,767.84 1787.04,765.40 1787.92,763.39 1789.57,761.79 1792.00,760.63"/>
    </edge>
    <edge id=":4422737523_2" function="internal">
        <lane id=":4422737523_2_0" index="0" allow="pedestrian delivery bicycle" speed="3.65" length="4.67" shape="1786.93,767.84 1787.60,766.56 1788.36,766.08 1789.19,766.40 1790.11,767.51"/>
    </edge>
    <edge id=":4422737523_3" function="internal">
        <lane id=":4422737523_3_0" index="0" allow="pedestrian delivery bicycle" speed="5.56" length="5.27" shape="1793.03,763.66 1791.64,764.31 1790.70,765.16 1790.19,766.23 1790.11,767.51"/>
    </edge>
    <edge id=":4422737523_4" function="internal">
        <lane id=":4422737523_4_0" index="0" allow="pedestrian delivery bicycle" speed="5.56" length="10.10" shape="1793.03,763.66 1790.31,764.17 1788.08,763.69 1786.32,762.23 1785.04,759.78"/>
    </edge>
    <edge id=":4422737523_5" function="internal">
        <lane id=":4422737523_5_0" index="0" allow="pedestrian delivery bicycle" speed="3.65" length="4.67" shape="1793.03,763.66 1791.63,763.29 1791.00,762.66 1791.12,761.77 1792.00,760.63"/>
    </edge>
    <edge id=":4422737523_6" function="internal">
        <lane id=":4422737523_6_0" index="0" allow="pedestrian delivery bicycle" speed="5.05" length="4.98" shape="1788.06,758.71 1788.69,759.92 1789.56,760.64 1790.66,760.88 1792.00,760.63"/>
    </edge>
    <edge id=":4422737523_7" function="internal">
        <lane id=":4422737523_7_0" index="0" allow="pedestrian delivery bicycle" speed="5.56" length="9.07" shape="1788.06,758.71 1788.95,761.25 1789.47,763.02 1789.81,764.84 1790.11,767.51"/>
    </edge>
    <edge id=":4422737523_8" function="internal">
        <lane id=":4422737523_8_0" index="0" allow="pedestrian delivery bicycle" speed="3.65" length="4.67" shape="1788.06,758.71 1787.70,760.11 1787.08,760.75 1786.19,760.64 1785.04,759.78"/>
    </edge>
    <edge id=":4422737525_0" function="internal">
        <lane id=":4422737525_0_0" index="0" allow="pedestrian delivery bicycle" speed="5.56" length="8.00" shape="2046.37,770.04 2044.22,770.56 2042.45,770.25 2041.06,769.12 2040.05,767.16"/>
    </edge>
    <edge id=":4422737525_1" function="internal">
        <lane id=":4422737525_1_0" index="0" allow="pedestrian delivery bicycle" speed="3.65" length="4.67" shape="2046.37,770.04 2044.95,769.75 2044.29,769.15 2044.36,768.26 2045.18,767.07"/>
    </edge>
    <edge id=":4422737525_2" function="internal">
        <lane id=":4422737525_2_0" index="0" allow="pedestrian delivery bicycle" speed="3.90" length="2.67" shape="2043.07,766.11 2043.41,766.76 2043.87,767.14 2044.46,767.24 2045.18,767.07"/>
    </edge>
    <edge id=":4422737525_3" function="internal">
        <lane id=":4422737525_3_0" index="0" allow="pedestrian delivery bicycle" speed="3.65" length="4.67" shape="2043.07,766.11 2042.71,767.51 2042.09,768.15 2041.20,768.03 2040.05,767.16"/>
    </edge>
    <edge id=":4422737559_0" function="internal">
        <lane id=":4422737559_0_0" index="0" allow="pedestrian delivery bicycle" speed="3.65" length="4.67" shape="1602.99,907.28 1602.60,908.67 1601.97,909.30 1601.08,909.17 1599.95,908.28"/>
    </edge>
    <edge id=":4422737567_0" function="internal">
        <lane id=":4422737567_0_0" index="0" allow="pedestrian delivery bicycle" speed="3.65" length="4.67" shape="1042.38,961.84 1043.42,960.84 1044.29,960.63 1044.98,961.19 1045.50,962.54"/>
    </edge>
    <edge id=":4422737570_0" function="internal">
        <lane id=":4422737570_0_0" index="0" allow="pedestrian delivery bicycle" speed="5.56" length="0.41" shape="1043.12,973.16 1043.01,973.55"/>
    </edge>
    <edge id=":4422737570_1" function="internal">
        <lane id=":4422737570_1_0" index="0" allow="pedestrian delivery bicycle" speed="3.65" length="4.67" shape="1043.12,973.16 1042.08,974.15 1041.21,974.37 1040.52,973.80 1040.00,972.46"/>
    </edge>
    <edge id=":4422737570_2" function="internal">
        <lane id=":4422737570_2_0" index="0" allow="pedestrian delivery bicycle" speed="5.56" length="0.14" shape="1039.96,972.59 1040.00,972.46"/>
    </edge>
    <edge id=":4422737570_3" function="internal">
        <lane id=":4422737570_3_0" index="0" allow="pedestrian delivery bicycle" speed="3.65" length="4.67" shape="1039.96,972.59 1041.09,971.69 1041.97,971.55 1042.61,972.17 1043.01,973.55"/>
    </edge>
    <edge id=":4422737580_0" function="internal">
        <lane id=":4422737580_0_0" index="0" allow="pedestrian delivery bicycle" speed="3.65" length="4.67" shape="1086.27,1010.42 1087.22,1009.34 1088.07,1009.06 1088.81,1009.56 1089.43,1010.86"/>
    </edge>
    <edge id=":4422737597_0" function="internal">
        <lane id=":4422737597_0_0" index="0" allow="pedestrian delivery bicycle" speed="3.65" length="4.67" shape="1060.69,1137.84 1062.10,1138.13 1062.77,1138.72 1062.70,1139.61 1061.89,1140.80"/>
    </edge>
    <edge id=":4422737598_0" function="internal">
        <lane id=":4422737598_0_0" index="0" disallow="tram rail_urban rail rail_electric rail_fast ship" speed="3.65" length="4.67" shape="1184.35,1157.39 1183.81,1158.72 1183.10,1159.28 1182.24,1159.05 1181.21,1158.03"/>
    </edge>
    <edge id=":4422737599_0" function="internal">
        <lane id=":4422737599_0_0" index="0" disallow="tram rail_urban rail rail_electric rail_fast ship" speed="13.89" length="9.21" shape="997.10,1170.17 993.90,1161.53"/>
    </edge>
    <edge id=":4422737599_1" function="internal">
        <lane id=":4422737599_1_0" index="0" allow="pedestrian delivery bicycle" speed="6.96" length="4.87" shape="997.10,1170.17 996.59,1167.52 997.03,1165.40"/>
    </edge>
    <edge id=":4422737599_2" function="internal">
        <lane id=":4422737599_2_0" index="0" disallow="tram rail_urban rail rail_electric rail_fast ship" speed="3.65" length="2.34" shape="997.10,1170.17 997.46,1168.78 998.08,1168.14"/>
    </edge>
    <edge id=":4422737599_9" function="internal">
        <lane id=":4422737599_9_0" index="0" allow="pedestrian delivery bicycle" speed="6.96" length="5.20" shape="997.03,1165.40 997.06,1165.29 998.50,1163.48 1000.91,1162.10"/>
    </edge>
    <edge id=":4422737599_10" function="internal">
        <lane id=":4422737599_10_0" index="0" disallow="tram rail_urban rail rail_electric rail_fast ship" speed="3.65" length="2.34" shape="998.08,1168.14 998.97,1168.25 1000.12,1169.12"/>
    </edge>
    <edge id=":4422737599_3" function="internal">
        <lane id=":4422737599_3_0" index="0" allow="pedestrian delivery bicycle" speed="5.17" length="5.10" shape="1002.11,1165.06 1000.87,1165.77 1000.12,1166.68 999.87,1167.80 1000.12,1169.12"/>
    </edge>
    <edge id=":4422737599_4" function="internal">
        <lane id=":4422737599_4_0" index="0" allow="pedestrian delivery bicycle" speed="6.85" length="10.22" shape="1002.11,1165.06 999.39,1165.74 997.11,1165.37 995.28,1163.97 993.90,1161.53"/>
    </edge>
    <edge id=":4422737599_5" function="internal">
        <lane id=":4422737599_5_0" index="0" allow="pedestrian delivery bicycle" speed="3.65" length="4.67" shape="1002.11,1165.06 1000.70,1164.77 1000.03,1164.18 1000.10,1163.29 1000.91,1162.10"/>
    </edge>
    <edge id=":4422737599_6" function="internal">
        <lane id=":4422737599_6_0" index="0" allow="pedestrian delivery bicycle" speed="5.03" length="5.01" shape="996.88,1160.37 997.56,1161.56 998.46,1162.25 999.57,1162.43 1000.91,1162.10"/>
    </edge>
    <edge id=":4422737599_7" function="internal">
        <lane id=":4422737599_7_0" index="0" disallow="tram rail_urban rail rail_electric rail_fast ship" speed="13.89" length="9.34" shape="996.88,1160.37 1000.12,1169.12"/>
    </edge>
    <edge id=":4422737599_8" function="internal">
        <lane id=":4422737599_8_0" index="0" disallow="tram rail_urban rail rail_electric rail_fast ship" speed="3.65" length="2.34" shape="996.88,1160.37 996.57,1161.77 995.97,1162.44"/>
    </edge>
    <edge id=":4422737599_11" function="internal">
        <lane id=":4422737599_11_0" index="0" disallow="tram rail_urban rail rail_electric rail_fast ship" speed="3.65" length="2.34" shape="995.97,1162.44 995.08,1162.36 993.90,1161.53"/>
    </edge>
    <edge id=":5494145227_0" function="internal">
        <lane id=":5494145227_0_0" index="0" allow="pedestrian delivery bicycle" speed="3.65" length="4.67" shape="2088.73,776.27 2088.84,777.71 2088.46,778.52 2087.58,778.70 2086.21,778.25"/>
    </edge>
    <edge id=":6798264672_0" function="internal">
        <lane id=":6798264672_0_0" index="0" allow="pedestrian delivery bicycle" speed="3.65" length="4.67" shape="1767.12,532.23 1767.51,530.84 1768.15,530.22 1769.04,530.35 1770.16,531.25"/>
    </edge>
    <edge id=":6798264673_0" function="internal">
        <lane id=":6798264673_0_0" index="0" allow="pedestrian delivery bicycle" speed="5.56" length="9.40" shape="1842.48,746.90 1833.57,749.92"/>
    </edge>
    <edge id=":6798264673_1" function="internal">
        <lane id=":6798264673_1_0" index="0" allow="pedestrian delivery bicycle" speed="5.56" length="10.24" shape="1842.48,746.90 1839.71,747.42 1837.46,746.92 1835.72,745.40 1834.49,742.87"/>
    </edge>
    <edge id=":6798264673_2" function="internal">
        <lane id=":6798264673_2_0" index="0" allow="pedestrian delivery bicycle" speed="3.65" length="4.67" shape="1842.48,746.90 1841.08,746.53 1840.45,745.90 1840.57,745.01 1841.45,743.87"/>
    </edge>
    <edge id=":6798264673_3" function="internal">
        <lane id=":6798264673_3_0" index="0" allow="pedestrian delivery bicycle" speed="5.02" length="5.02" shape="1837.54,741.89 1838.14,743.13 1838.99,743.88 1840.09,744.12 1841.45,743.87"/>
    </edge>
    <edge id=":6798264673_4" function="internal">
        <lane id=":6798264673_4_0" index="0" allow="pedestrian delivery bicycle" speed="5.56" length="10.16" shape="1837.54,741.89 1838.01,744.66 1837.51,746.91 1836.03,748.67 1833.57,749.92"/>
    </edge>
    <edge id=":6798264673_5" function="internal">
        <lane id=":6798264673_5_0" index="0" allow="pedestrian delivery bicycle" speed="3.65" length="4.67" shape="1837.54,741.89 1837.14,743.28 1836.50,743.91 1835.62,743.77 1834.49,742.87"/>
    </edge>
    <edge id=":6798264673_6" function="internal">
        <lane id=":6798264673_6_0" index="0" allow="pedestrian delivery bicycle" speed="5.10" length="5.07" shape="1832.55,746.89 1833.76,746.26 1834.49,745.39 1834.73,744.26 1834.49,742.87"/>
    </edge>
    <edge id=":6798264673_7" function="internal">
        <lane id=":6798264673_7_0" index="0" allow="pedestrian delivery bicycle" speed="5.56" length="9.40" shape="1832.55,746.89 1841.45,743.87"/>
    </edge>
    <edge id=":6798264673_8" function="internal">
        <lane id=":6798264673_8_0" index="0" allow="pedestrian delivery bicycle" speed="3.65" length="4.67" shape="1832.55,746.89 1833.94,747.26 1834.58,747.89 1834.45,748.77 1833.57,749.92"/>
    </edge>
    <edge id=":7026190660_0" function="internal">
        <lane id=":7026190660_0_0" index="0" allow="pedestrian delivery bicycle" speed="6.99" length="10.81" shape="262.33,922.08 263.65,918.12 265.05,915.43 266.53,914.02 268.08,913.87"/>
    </edge>
    <edge id=":7026190660_1" function="internal">
        <lane id=":7026190660_1_0" index="0" allow="pedestrian delivery bicycle" speed="6.05" length="7.83" shape="262.33,922.08 263.27,919.47 264.38,917.74 265.67,916.89 267.13,916.93"/>
    </edge>
    <edge id=":7026190660_2" function="internal">
        <lane id=":7026190660_2_0" index="0" allow="pedestrian delivery bicycle" speed="5.01" length="5.03" shape="262.33,922.08 262.88,920.81 263.71,920.04 264.81,919.77 266.18,919.99"/>
    </edge>
    <edge id=":8722489693_0" function="internal">
        <lane id=":8722489693_0_0" index="0" allow="motorcycle moped" speed="13.89" length="0.29" shape="1463.93,1635.44 1464.01,1635.72"/>
    </edge>
    <edge id=":A0_0" function="internal">
        <lane id=":A0_0_0" index="0" allow="motorcycle moped" speed="10.96" length="28.60" shape="1241.30,1008.98 1238.30,1003.65 1233.21,1000.89 1226.05,1000.68 1216.81,1003.04"/>
    </edge>
    <edge id=":A0_1" function="internal">
        <lane id=":A0_1_0" index="0" allow="motorcycle moped" speed="17.00" length="50.36" shape="1241.30,1008.98 1229.05,960.13"/>
    </edge>
    <edge id=":A0_2" function="internal">
        <lane id=":A0_2_0" index="0" allow="private emergency authority army vip passenger hov taxi bus coach delivery truck trailer evehicle custom1 custom2" speed="19.61" length="50.94" shape="1241.30,1008.98 1239.84,999.75 1238.99,987.37 1237.65,973.18 1234.68,958.54"/>
    </edge>
    <edge id=":A0_3" function="internal">
        <lane id=":A0_3_0" index="0" allow="motorcycle moped" speed="18.50" length="50.00" shape="1241.71,1008.85 1237.07,998.41 1229.33,991.75 1213.77,985.83 1225.00,982.49"/>
    </edge>
    <edge id=":A0_4" function="internal">
        <lane id=":A0_4_0" index="0" allow="private emergency authority army vip passenger hov taxi bus coach delivery truck trailer evehicle custom1 custom2" speed="19.61" length="50.46" shape="1244.36,1008.03 1242.42,998.96 1240.52,986.90 1238.13,973.03 1234.68,958.54"/>
    </edge>
    <edge id=":A0_32" function="internal">
        <lane id=":A0_32_0" index="0" allow="motorcycle moped" speed="18.50" length="66.14" shape="1225.00,982.49 1288.39,963.62"/>
    </edge>
    <edge id=":A0_5" function="internal">
        <lane id=":A0_5_0" index="0" allow="private emergency authority army vip passenger hov taxi bus coach delivery truck trailer evehicle custom1 custom2" speed="22.22" length="50.09" shape="1248.33,1006.81 1234.68,958.54"/>
        <lane id=":A0_5_1" index="1" allow="private emergency authority army vip passenger hov taxi bus coach delivery truck trailer evehicle custom1 custom2" speed="22.22" length="50.09" shape="1251.39,1005.87 1237.76,957.67"/>
        <lane id=":A0_5_2" index="2" allow="private emergency authority army vip passenger hov taxi bus coach delivery truck trailer evehicle custom1 custom2" speed="22.22" length="50.09" shape="1254.44,1004.93 1240.84,956.80"/>
    </edge>
    <edge id=":A0_8" function="internal">
        <lane id=":A0_8_0" index="0" allow="private emergency authority army vip passenger hov taxi bus coach delivery truck trailer evehicle custom1 custom2" speed="14.95" length="11.00" shape="1257.50,1003.99 1256.97,993.82 1257.39,993.11"/>
    </edge>
    <edge id=":A0_33" function="internal">
        <lane id=":A0_33_0" index="0" allow="private emergency authority army vip passenger hov taxi bus coach delivery truck trailer evehicle custom1 custom2" speed="14.95" length="41.57" shape="1257.39,993.11 1262.28,984.80 1273.43,976.93 1290.43,970.20"/>
    </edge>
    <edge id=":A0_9" function="internal">
        <lane id=":A0_9_0" index="0" allow="motorcycle moped" speed="10.54" length="25.29" shape="1293.68,980.71 1285.78,983.93 1280.63,987.80 1278.21,992.33 1278.54,997.51"/>
    </edge>
    <edge id=":A0_10" function="internal">
        <lane id=":A0_10_0" index="0" allow="motorcycle moped" speed="20.00" length="80.05" shape="1293.68,980.71 1216.81,1003.04"/>
    </edge>
    <edge id=":A0_11" function="internal">
        <lane id=":A0_11_0" index="0" allow="motorcycle moped" speed="18.50" length="64.00" shape="1293.68,980.71 1266.96,989.90 1251.05,998.48 1240.57,1007.33 1239.63,1003.49"/>
    </edge>
    <edge id=":A0_12" function="internal">
        <lane id=":A0_12_0" index="0" allow="private emergency authority army vip passenger hov taxi bus coach delivery truck trailer evehicle custom1 custom2" speed="11.97" length="33.28" shape="1292.73,977.65 1282.14,981.92 1275.22,986.97 1271.97,992.80 1272.39,999.40"/>
    </edge>
    <edge id=":A0_13" function="internal">
        <lane id=":A0_13_0" index="0" disallow="tram rail_urban rail rail_electric rail_fast ship" speed="20.00" length="80.24" shape="1292.73,977.65 1215.74,1000.02"/>
        <lane id=":A0_13_1" index="1" disallow="tram rail_urban rail rail_electric rail_fast ship" speed="20.00" length="80.24" shape="1291.79,974.59 1214.67,997.00"/>
    </edge>
    <edge id=":A0_15" function="internal">
        <lane id=":A0_15_0" index="0" allow="private emergency authority army vip passenger hov taxi bus coach delivery truck trailer evehicle custom1 custom2" speed="15.70" length="58.63" shape="1291.79,974.59 1274.17,978.00 1260.32,976.02 1250.24,968.66 1243.92,955.93"/>
    </edge>
    <edge id=":A0_34" function="internal">
        <lane id=":A0_34_0" index="0" allow="motorcycle moped" speed="18.50" length="44.63" shape="1239.63,1003.49 1229.05,960.13"/>
    </edge>
    <edge id=":A0_16" function="internal">
        <lane id=":A0_16_0" index="0" allow="motorcycle moped" speed="11.66" length="31.81" shape="1264.51,950.17 1268.11,958.39 1273.32,963.45 1280.13,965.35 1288.53,964.08"/>
    </edge>
    <edge id=":A0_17" function="internal">
        <lane id=":A0_17_0" index="0" allow="motorcycle moped" speed="17.00" length="49.38" shape="1264.51,950.17 1278.54,997.51"/>
    </edge>
    <edge id=":A0_18" function="internal">
        <lane id=":A0_18_0" index="0" allow="motorcycle moped" speed="18.50" length="54.00" shape="1264.51,950.17 1270.61,963.47 1277.62,971.51 1283.68,977.07 1290.83,981.90 1279.44,985.15"/>
    </edge>
    <edge id=":A0_35" function="internal">
        <lane id=":A0_35_0" index="0" allow="motorcycle moped" speed="18.50" length="65.13" shape="1279.44,985.15 1216.81,1003.04"/>
    </edge>
    <edge id=":A0_19" function="internal">
        <lane id=":A0_19_0" index="0" disallow="all" speed="12.27" length="35.16" shape="1260.58,951.22 1264.51,959.42 1270.47,964.29 1278.48,965.85 1288.53,964.08"/>
    </edge>
    <edge id=":A0_20" function="internal">
        <lane id=":A0_20_0" index="0" allow="private emergency authority army vip passenger hov taxi bus coach delivery truck trailer evehicle custom1 custom2" speed="22.22" length="49.69" shape="1257.50,952.09 1272.39,999.40"/>
        <lane id=":A0_20_1" index="1" allow="private emergency authority army vip passenger hov taxi bus coach delivery truck trailer evehicle custom1 custom2" speed="22.22" length="49.69" shape="1254.42,952.96 1269.33,1000.35"/>
        <lane id=":A0_20_2" index="2" allow="private emergency authority army vip passenger hov taxi bus coach delivery truck trailer evehicle custom1 custom2" speed="22.22" length="49.69" shape="1251.34,953.83 1266.25,1001.22"/>
        <lane id=":A0_20_3" index="3" allow="private emergency authority army vip passenger hov taxi bus coach delivery truck trailer evehicle custom1 custom2" speed="22.22" length="49.69" shape="1251.34,953.83 1263.20,1002.20"/>
    </edge>
    <edge id=":A0_24" function="internal">
        <lane id=":A0_24_0" index="0" allow="private emergency authority army vip passenger hov taxi bus coach delivery truck trailer evehicle custom1 custom2" speed="16.37" length="60.19" shape="1248.26,954.70 1249.21,967.68 1243.92,979.06 1232.41,988.83 1214.67,997.00"/>
    </edge>
    <edge id=":A0_25" function="internal">
        <lane id=":A0_25_0" index="0" allow="motorcycle moped" speed="12.85" length="36.27" shape="1211.19,987.13 1220.99,982.35 1227.23,976.25 1229.92,968.85 1229.05,960.13"/>
    </edge>
    <edge id=":A0_26" function="internal">