<?xml version="1.0" encoding="UTF-8"?>
<net version="1.9" junctionCornerDetail="5" limitTurnSpeed="5.50" xmlns:xsi="http://www.w3.org/2001/XMLSchema-instance" xsi:noNamespaceSchemaLocation="http://sumo.dlr.de/xsd/net_file.xsd">

    <location netOffset="-256058.17,-2677904.83" convBoundary="239.97,0.00,2030.63,1948.96" origBoundary="120.596956,24.195076,120.635275,24.226007" projParameter="+proj=utm +zone=51 +ellps=WGS84 +datum=WGS84 +units=m +no_defs"/>

    <type id="highway.bridleway" priority="1" numLanes="1" speed="2.78" allow="pedestrian" oneway="1" width="2.00"/>
    <type id="highway.bus_guideway" priority="1" numLanes="1" speed="27.78" allow="bus" oneway="1"/>
    <type id="highway.cycleway" priority="1" numLanes="1" speed="8.33" allow="bicycle" oneway="1" width="1.00"/>
    <type id="highway.footway" priority="1" numLanes="1" speed="2.78" allow="pedestrian" oneway="1" width="2.00"/>
    <type id="highway.ford" priority="1" numLanes="1" speed="2.78" allow="army" oneway="1"/>
    <type id="highway.living_street" priority="2" numLanes="1" speed="2.78" disallow="tram rail_urban rail rail_electric rail_fast ship" oneway="1"/>
    <type id="highway.motorway" priority="14" numLanes="2" speed="39.44" allow="private emergency authority army vip passenger hov taxi bus coach delivery truck trailer motorcycle evehicle custom1 custom2" oneway="1"/>
    <type id="highway.motorway_link" priority="9" numLanes="1" speed="22.22" allow="private emergency authority army vip passenger hov taxi bus coach delivery truck trailer motorcycle evehicle custom1 custom2" oneway="1"/>
    <type id="highway.path" priority="1" numLanes="1" speed="2.78" allow="pedestrian bicycle" oneway="1" width="2.00"/>
    <type id="highway.pedestrian" priority="1" numLanes="1" speed="2.78" allow="pedestrian" oneway="1" width="2.00"/>
    <type id="highway.primary" priority="12" numLanes="2" speed="27.78" disallow="tram rail_urban rail rail_electric rail_fast ship" oneway="1"/>
    <type id="highway.primary_link" priority="7" numLanes="1" speed="22.22" disallow="tram rail_urban rail rail_electric rail_fast ship" oneway="1"/>
    <type id="highway.raceway" priority="15" numLanes="2" speed="83.33" allow="vip" oneway="1"/>
    <type id="highway.residential" priority="3" numLanes="1" speed="13.89" disallow="tram rail_urban rail rail_electric rail_fast ship" oneway="1"/>
    <type id="highway.secondary" priority="11" numLanes="1" speed="27.78" disallow="tram rail_urban rail rail_electric rail_fast ship" oneway="1"/>
    <type id="highway.secondary_link" priority="6" numLanes="1" speed="22.22" disallow="tram rail_urban rail rail_electric rail_fast ship" oneway="1"/>
    <type id="highway.service" priority="1" numLanes="1" speed="5.56" allow="pedestrian delivery bicycle" oneway="1"/>
    <type id="highway.stairs" priority="1" numLanes="1" speed="1.39" allow="pedestrian" oneway="1" width="2.00"/>
    <type id="highway.step" priority="1" numLanes="1" speed="1.39" allow="pedestrian" oneway="1" width="2.00"/>
    <type id="highway.steps" priority="1" numLanes="1" speed="1.39" allow="pedestrian" oneway="1" width="2.00"/>
    <type id="highway.tertiary" priority="10" numLanes="1" speed="22.22" disallow="tram rail_urban rail rail_electric rail_fast ship" oneway="1"/>
    <type id="highway.tertiary_link" priority="5" numLanes="1" speed="22.22" disallow="tram rail_urban rail rail_electric rail_fast ship" oneway="1"/>
    <type id="highway.track" priority="1" numLanes="1" speed="5.56" allow="pedestrian motorcycle moped bicycle" oneway="1"/>
    <type id="highway.trunk" priority="13" numLanes="2" speed="27.78" disallow="pedestrian bicycle tram rail_urban rail rail_electric rail_fast ship" oneway="1"/>
    <type id="highway.trunk_link" priority="8" numLanes="1" speed="22.22" disallow="pedestrian bicycle tram rail_urban rail rail_electric rail_fast ship" oneway="1"/>
    <type id="highway.unclassified" priority="4" numLanes="1" speed="13.89" disallow="tram rail_urban rail rail_electric rail_fast ship" oneway="1"/>
    <type id="highway.unsurfaced" priority="1" numLanes="1" speed="8.33" disallow="tram rail_urban rail rail_electric rail_fast ship" oneway="1"/>
    <type id="railway.highspeed" priority="21" numLanes="1" speed="69.44" allow="rail_fast" oneway="1"/>
    <type id="railway.light_rail" priority="19" numLanes="1" speed="27.78" allow="rail_urban" oneway="1"/>
    <type id="railway.preserved" priority="16" numLanes="1" speed="27.78" allow="rail" oneway="1"/>
    <type id="railway.rail" priority="20" numLanes="1" speed="44.44" allow="rail" oneway="1"/>
    <type id="railway.subway" priority="18" numLanes="1" speed="27.78" allow="rail_urban" oneway="1"/>
    <type id="railway.tram" priority="17" numLanes="1" speed="13.89" allow="tram" oneway="1"/>

    <edge id=":1813845494_0" function="internal">
        <lane id=":1813845494_0_0" index="0" allow="pedestrian delivery bicycle" speed="6.63" length="8.61" width="3.50" shape="1028.95,983.67 1027.69,986.63 1027.13,988.95 1027.26,990.63 1028.08,991.67"/>
    </edge>
    <edge id=":1813845494_1" function="internal">
        <lane id=":1813845494_1_0" index="0" allow="motorcycle moped" speed="20.00" length="10.04" width="3.50" shape="1021.38,983.42 1029.91,988.69"/>
    </edge>
    <edge id=":1813845494_2" function="internal">
        <lane id=":1813845494_2_0" index="0" allow="pedestrian delivery bicycle" speed="6.19" length="3.34" width="3.50" shape="1019.53,986.39 1021.13,986.87 1022.71,986.33"/>
    </edge>
    <edge id=":1813845494_3" function="internal">
        <lane id=":1813845494_3_0" index="0" disallow="tram rail_urban rail rail_electric rail_fast ship" speed="20.00" length="10.04" width="3.50" shape="1019.53,986.39 1028.08,991.67"/>
        <lane id=":1813845494_3_1" index="1" allow="private emergency authority army vip passenger hov taxi bus coach delivery truck trailer evehicle custom1 custom2" speed="20.00" length="10.04" width="3.50" shape="1017.69,989.37 1026.24,994.65"/>
    </edge>
    <edge id=":1813845494_5" function="internal">
        <lane id=":1813845494_5_0" index="0" allow="pedestrian delivery bicycle" speed="6.19" length="5.24" width="3.50" shape="1022.71,986.33 1024.27,984.75 1025.80,982.14"/>
    </edge>
    <edge id=":1818466980_0" function="internal">
        <lane id=":1818466980_0_0" index="0" disallow="tram rail_urban rail rail_electric rail_fast ship" speed="3.82" length="5.11" width="3.50" shape="642.49,574.42 642.53,572.84 643.04,572.01 644.02,571.91 645.45,572.56"/>
    </edge>
    <edge id=":1818467031_0" function="internal">
        <lane id=":1818467031_0_0" index="0" disallow="tram rail_urban rail rail_electric rail_fast ship" speed="3.82" length="5.11" width="3.50" shape="1019.37,1224.20 1018.98,1225.72 1018.29,1226.42 1017.32,1226.30 1016.07,1225.34"/>
    </edge>
    <edge id=":1818467032_0" function="internal">
        <lane id=":1818467032_0_0" index="0" disallow="tram rail_urban rail rail_electric rail_fast ship" speed="3.82" length="5.11" width="3.50" shape="839.04,1224.19 838.68,1225.73 838.02,1226.45 837.05,1226.35 835.76,1225.43"/>
    </edge>
    <edge id=":4404450097_0" function="internal">
        <lane id=":4404450097_0_0" index="0" allow="motorcycle moped" speed="16.95" length="18.08" width="3.50" shape="1099.04,1036.81 1095.88,1034.91 1092.39,1033.20 1088.03,1031.70 1082.28,1030.42"/>
    </edge>
    <edge id=":4404450097_1" function="internal">
        <lane id=":4404450097_1_0" index="0" disallow="tram rail_urban rail rail_electric rail_fast ship" speed="3.82" length="5.11" width="3.50" shape="1099.04,1036.81 1098.40,1035.38 1098.49,1034.40 1099.32,1033.89 1100.90,1033.85"/>
    </edge>
    <edge id=":4404450097_2" function="internal">
        <lane id=":4404450097_2_0" index="0" allow="motorcycle moped" speed="5.64" length="9.99" width="3.50" shape="1101.77,1027.42 1098.88,1028.67 1097.78,1030.15 1098.45,1031.88 1100.90,1033.85"/>
    </edge>
    <edge id=":4404450097_3" function="internal">
        <lane id=":4404450097_3_0" index="0" disallow="tram rail_urban rail rail_electric rail_fast ship" speed="20.00" length="17.63" width="3.50" shape="1100.76,1024.07 1095.56,1025.83 1091.91,1027.07 1088.22,1027.54 1082.88,1026.97"/>
        <lane id=":4404450097_3_1" index="1" allow="private emergency authority army vip passenger hov taxi bus coach delivery truck trailer evehicle custom1 custom2" speed="20.00" length="17.63" width="3.50" shape="1099.76,1020.71 1095.02,1022.35 1091.71,1023.54 1088.34,1024.01 1083.48,1023.52"/>
    </edge>
    <edge id=":4422737504_0" function="internal">
        <lane id=":4422737504_0_0" index="0" allow="pedestrian delivery bicycle" speed="3.82" length="5.11" width="3.50" shape="1712.01,542.64 1712.45,541.13 1713.16,540.45 1714.12,540.61 1715.35,541.60"/>
    </edge>
    <edge id=":4422737523_0" function="internal">
        <lane id=":4422737523_0_0" index="0" allow="pedestrian delivery bicycle" speed="5.56" length="0.41" width="3.50" shape="1786.40,764.23 1786.39,764.11 1786.37,764.03 1786.35,763.95 1786.31,763.83"/>
    </edge>
    <edge id=":4422737523_1" function="internal">
        <lane id=":4422737523_1_0" index="0" allow="pedestrian delivery bicycle" speed="3.82" length="5.11" width="3.50" shape="1786.40,764.23 1787.14,762.84 1787.96,762.31 1788.88,762.65 1789.88,763.87"/>
    </edge>
    <edge id=":4422737523_2" function="internal">
        <lane id=":4422737523_2_0" index="0" allow="pedestrian delivery bicycle" speed="5.56" length="1.24" width="3.50" shape="1789.61,762.67 1789.73,763.01 1789.80,763.26 1789.84,763.50 1789.88,763.87"/>
    </edge>
    <edge id=":4422737523_3" function="internal">
        <lane id=":4422737523_3_0" index="0" allow="pedestrian delivery bicycle" speed="3.82" length="5.11" width="3.50" shape="1789.61,762.67 1789.22,764.20 1788.55,764.90 1787.57,764.78 1786.31,763.83"/>
    </edge>
    <edge id=":4422737559_0" function="internal">
        <lane id=":4422737559_0_0" index="0" allow="pedestrian delivery bicycle" speed="3.82" length="5.11" width="3.50" shape="1603.12,907.19 1602.74,908.72 1602.06,909.43 1601.09,909.31 1599.82,908.37"/>
    </edge>
    <edge id=":4422737567_0" function="internal">
        <lane id=":4422737567_0_0" index="0" allow="pedestrian delivery bicycle" speed="3.82" length="5.11" width="3.50" shape="1055.49,927.96 1057.01,927.53 1057.96,927.77 1058.34,928.67 1058.15,930.24"/>
    </edge>
    <edge id=":4422737570_0" function="internal">
        <lane id=":4422737570_0_0" index="0" allow="pedestrian delivery bicycle" speed="5.56" length="0.44" width="3.50" shape="1050.98,938.63 1050.90,938.73 1050.84,938.80 1050.80,938.88 1050.74,939.00"/>
    </edge>
    <edge id=":4422737570_1" function="internal">
        <lane id=":4422737570_1_0" index="0" allow="pedestrian delivery bicycle" speed="3.82" length="5.11" width="3.50" shape="1050.98,938.63 1049.46,939.06 1048.51,938.82 1048.13,937.92 1048.32,936.35"/>
    </edge>
    <edge id=":4422737570_2" function="internal">
        <lane id=":4422737570_2_0" index="0" allow="pedestrian delivery bicycle" speed="5.56" length="1.33" width="3.50" shape="1047.59,937.46 1047.77,937.11 1047.90,936.87 1048.06,936.66 1048.32,936.35"/>
    </edge>
    <edge id=":4422737570_3" function="internal">
        <lane id=":4422737570_3_0" index="0" allow="pedestrian delivery bicycle" speed="3.82" length="5.11" width="3.50" shape="1047.59,937.46 1048.95,936.67 1049.93,936.66 1050.53,937.43 1050.74,939.00"/>
    </edge>
    <edge id=":4422737597_0" function="internal">
        <lane id=":4422737597_0_0" index="0" allow="pedestrian delivery bicycle" speed="3.82" length="5.11" width="3.50" shape="1060.63,1137.70 1062.18,1138.02 1062.91,1138.66 1062.84,1139.64 1061.95,1140.94"/>
    </edge>
    <edge id=":4422737599_0" function="internal">
        <lane id=":4422737599_0_0" index="0" disallow="tram rail_urban rail rail_electric rail_fast ship" speed="13.89" length="9.79" width="3.50" shape="997.05,1170.49 993.65,1161.31"/>
    </edge>
    <edge id=":4422737599_1" function="internal">
        <lane id=":4422737599_1_0" index="0" allow="pedestrian delivery bicycle" speed="7.21" length="5.33" width="3.50" shape="997.05,1170.49 996.51,1167.65 997.01,1165.27"/>
    </edge>
    <edge id=":4422737599_2" function="internal">
        <lane id=":4422737599_2_0" index="0" disallow="tram rail_urban rail rail_electric rail_fast ship" speed="3.82" length="2.56" width="3.50" shape="997.05,1170.49 997.44,1168.96 998.13,1168.26"/>
    </edge>
    <edge id=":4422737599_8" function="internal">
        <lane id=":4422737599_8_0" index="0" allow="pedestrian delivery bicycle" speed="7.21" length="5.46" width="3.50" shape="997.01,1165.27 998.55,1163.33 1001.13,1161.84"/>
    </edge>
    <edge id=":4422737599_9" function="internal">
        <lane id=":4422737599_9_0" index="0" disallow="tram rail_urban rail rail_electric rail_fast ship" speed="3.82" length="2.56" width="3.50" shape="998.13,1168.26 999.10,1168.39 1000.35,1169.34"/>
    </edge>
    <edge id=":4422737599_3" function="internal">
        <lane id=":4422737599_3_0" index="0" allow="pedestrian delivery bicycle" speed="5.31" length="5.35" width="3.50" shape="1002.45,1165.09 1001.14,1165.83 1000.36,1166.79 1000.10,1167.96 1000.35,1169.34"/>
    </edge>
    <edge id=":4422737599_4" function="internal">
        <lane id=":4422737599_4_0" index="0" allow="pedestrian delivery bicycle" speed="7.10" length="10.95" width="3.50" shape="1002.45,1165.09 999.53,1165.81 997.09,1165.42 995.13,1163.92 993.65,1161.31"/>
    </edge>
    <edge id=":4422737599_5" function="internal">
        <lane id=":4422737599_5_0" index="0" allow="pedestrian delivery bicycle" speed="3.82" length="5.11" width="3.50" shape="1002.45,1165.09 1000.90,1164.77 1000.17,1164.12 1000.25,1163.15 1001.13,1161.84"/>
    </edge>
    <edge id=":4422737599_6" function="internal">
        <lane id=":4422737599_6_0" index="0" allow="pedestrian delivery bicycle" speed="5.17" length="5.26" width="3.50" shape="996.91,1160.03 997.62,1161.28 998.56,1162.00 999.73,1162.19 1001.13,1161.84"/>
    </edge>
    <edge id=":4422737599_7" function="internal">
        <lane id=":4422737599_7_0" index="0" disallow="tram rail_urban rail rail_electric rail_fast ship" speed="13.89" length="9.93" width="3.50" shape="996.91,1160.03 1000.35,1169.34"/>
    </edge>
    <edge id=":8722489693_0" function="internal">
        <lane id=":8722489693_0_0" index="0" allow="motorcycle moped" speed="16.95" length="0.27" width="3.50" shape="1463.93,1635.45 1464.01,1635.71"/>
    </edge>
    <edge id=":A0_0" function="internal">
        <lane id=":A0_0_0" index="0" allow="private emergency authority army vip passenger hov taxi bus coach delivery truck trailer evehicle custom1 custom2" speed="22.22" length="54.82" width="3.50" shape="1236.59,1003.08 1214.46,952.76"/>
        <lane id=":A0_0_1" index="1" allow="private emergency authority army vip passenger hov taxi bus coach delivery truck trailer evehicle custom1 custom2" speed="22.22" length="54.82" width="3.50" shape="1236.59,1003.08 1217.79,951.67"/>
        <lane id=":A0_0_2" index="2" allow="private emergency authority army vip passenger hov taxi bus coach delivery truck trailer evehicle custom1 custom2" speed="22.22" length="54.82" width="3.50" shape="1239.93,1002.02 1221.12,950.58"/>
        <lane id=":A0_0_3" index="3" allow="private emergency authority army vip passenger hov taxi bus coach delivery truck trailer evehicle custom1 custom2" speed="22.22" length="54.82" width="3.50" shape="1243.27,1000.97 1224.44,949.49"/>
    </edge>
    <edge id=":A0_4" function="internal">
        <lane id=":A0_4_0" index="0" allow="private emergency authority army vip passenger hov taxi bus coach delivery truck trailer evehicle custom1 custom2" speed="14.92" length="15.00" width="3.50" shape="1243.27,1000.97 1245.99,991.66 1248.98,987.28"/>
        <lane id=":A0_4_1" index="1" allow="private emergency authority army vip passenger hov taxi bus coach delivery truck trailer evehicle custom1 custom2" speed="14.25" length="14.82" width="3.50" shape="1246.61,999.91 1248.99,991.37 1252.40,986.49"/>
    </edge>
    <edge id=":A0_42" function="internal">
        <lane id=":A0_42_0" index="0" allow="private emergency authority army vip passenger hov taxi bus coach delivery truck trailer evehicle custom1 custom2" speed="14.92" length="38.80" width="3.50" shape="1248.98,987.28 1255.13,978.26 1266.35,965.77 1275.32,959.24"/>
    </edge>
    <edge id=":A0_43" function="internal">
        <lane id=":A0_43_0" index="0" allow="private emergency authority army vip passenger hov taxi bus coach delivery truck trailer evehicle custom1 custom2" speed="14.25" length="34.11" width="3.50" shape="1252.40,986.49 1257.31,979.47 1267.71,968.46 1276.31,962.60"/>
    </edge>
    <edge id=":A0_6" function="internal">
        <lane id=":A0_6_0" index="0" allow="motorcycle moped" speed="10.27" length="24.27" width="3.50" shape="1279.60,973.80 1273.57,976.59 1269.92,980.65 1268.65,985.98 1269.75,992.58"/>
    </edge>
    <edge id=":A0_7" function="internal">
        <lane id=":A0_7_0" index="0" allow="motorcycle moped" speed="20.00" length="74.65" width="3.50" shape="1279.60,973.80 1208.01,994.96"/>
    </edge>
    <edge id=":A0_8" function="internal">
        <lane id=":A0_8_0" index="0" allow="motorcycle moped" speed="20.00" length="73.30" width="3.50" shape="1279.60,973.80 1249.32,988.36 1232.27,999.91 1223.36,1004.56 1218.79,996.74"/>
    </edge>
    <edge id=":A0_9" function="internal">
        <lane id=":A0_9_0" index="0" allow="motorcycle moped" speed="10.85" length="7.65" width="3.50" shape="1278.61,970.44 1272.62,973.45 1272.06,974.21"/>
    </edge>
    <edge id=":A0_10" function="internal">
        <lane id=":A0_10_0" index="0" allow="private emergency authority army vip passenger hov taxi bus coach delivery truck trailer evehicle custom1 custom2" speed="11.73" length="10.77" width="3.50" shape="1278.61,970.44 1269.83,974.28 1268.98,975.11"/>
    </edge>
    <edge id=":A0_11" function="internal">
        <lane id=":A0_11_0" index="0" disallow="pedestrian tram rail_urban rail rail_electric rail_fast ship" speed="20.00" length="74.71" width="3.50" shape="1278.61,970.44 1206.98,991.61"/>
        <lane id=":A0_11_1" index="1" allow="private emergency authority army vip passenger hov taxi bus coach delivery truck trailer evehicle custom1 custom2" speed="20.00" length="74.71" width="3.50" shape="1277.62,967.09 1205.95,988.26"/>
    </edge>
    <edge id=":A0_13" function="internal">
        <lane id=":A0_13_0" index="0" allow="private emergency authority army vip passenger hov taxi bus coach delivery truck trailer evehicle custom1 custom2" speed="15.86" length="57.02" width="3.50" shape="1277.62,967.09 1266.07,966.42 1248.76,961.95 1232.59,955.65 1224.44,949.49"/>
    </edge>
    <edge id=":A0_44" function="internal">
        <lane id=":A0_44_0" index="0" allow="motorcycle moped" speed="20.00" length="43.26" width="3.50" shape="1218.79,996.74 1208.39,954.75"/>
    </edge>
    <edge id=":A0_45" function="internal">
        <lane id=":A0_45_0" index="0" allow="motorcycle moped" speed="10.85" length="19.56" width="3.50" shape="1272.06,974.21 1269.14,978.14 1268.19,984.52 1269.75,992.58"/>
    </edge>
    <edge id=":A0_46" function="internal">
        <lane id=":A0_46_0" index="0" allow="private emergency authority army vip passenger hov taxi bus coach delivery truck trailer evehicle custom1 custom2" speed="11.73" length="21.71" width="3.50" shape="1268.98,975.11 1264.42,979.57 1262.38,986.31 1263.71,994.49"/>
    </edge>
    <edge id=":A0_14" function="internal">
        <lane id=":A0_14_0" index="0" allow="motorcycle moped" speed="11.58" length="29.86" width="3.50" shape="1252.87,940.19 1256.74,948.68 1261.60,954.12 1267.47,956.52 1274.33,955.88"/>
    </edge>
    <edge id=":A0_15" function="internal">
        <lane id=":A0_15_0" index="0" allow="motorcycle moped" speed="20.00" length="55.04" width="3.50" shape="1252.87,940.19 1269.75,992.58"/>
    </edge>
    <edge id=":A0_16" function="internal">
        <lane id=":A0_16_0" index="0" allow="motorcycle moped" speed="20.00" length="51.17" width="3.50" shape="1252.87,940.19 1267.75,964.53 1276.36,976.11 1269.57,980.72"/>
    </edge>
    <edge id=":A0_47" function="internal">
        <lane id=":A0_47_0" index="0" allow="motorcycle moped" speed="20.00" length="63.19" width="3.50" shape="1269.57,980.72 1208.01,994.96"/>
    </edge>
    <edge id=":A0_17" function="internal">
        <lane id=":A0_17_0" index="0" allow="private emergency authority army vip passenger hov taxi bus coach delivery truck trailer evehicle custom1 custom2" speed="13.01" length="37.72" width="3.50" shape="1246.49,942.28 1251.29,951.99 1257.69,958.06 1265.70,960.47 1275.32,959.24"/>
    </edge>
    <edge id=":A0_18" function="internal">
        <lane id=":A0_18_0" index="0" allow="private emergency authority army vip passenger hov taxi bus coach delivery truck trailer evehicle custom1 custom2" speed="22.22" length="54.93" width="3.50" shape="1246.49,942.28 1263.71,994.49"/>
        <lane id=":A0_18_1" index="1" allow="private emergency authority army vip passenger hov taxi bus coach delivery truck trailer evehicle custom1 custom2" speed="22.22" length="54.93" width="3.50" shape="1243.16,943.37 1260.37,995.55"/>
        <lane id=":A0_18_2" index="2" allow="private emergency authority army vip passenger hov taxi bus coach delivery truck trailer evehicle custom1 custom2" speed="22.22" length="54.93" width="3.50" shape="1239.84,944.45 1257.04,996.61"/>
        <lane id=":A0_18_3" index="3" allow="private emergency authority army vip passenger hov taxi bus coach delivery truck trailer evehicle custom1 custom2" speed="22.22" length="54.93" width="3.50" shape="1236.51,945.54 1253.70,997.66"/>
    </edge>
    <edge id=":A0_22" function="internal">
        <lane id=":A0_22_0" index="0" allow="private emergency authority army vip passenger hov taxi bus coach delivery truck trailer evehicle custom1 custom2" speed="15.29" length="55.98" width="3.50" shape="1236.51,945.54 1234.28,955.81 1225.99,970.65 1215.57,984.45 1206.98,991.61"/>
        <lane id=":A0_22_1" index="1" allow="private emergency authority army vip passenger hov taxi bus coach delivery truck trailer evehicle custom1 custom2" speed="14.63" length="51.09" width="3.50" shape="1233.18,946.63 1231.30,956.17 1223.80,969.49 1214.18,981.79 1205.95,988.26"/>
    </edge>
    <edge id=":A0_24" function="internal">
        <lane id=":A0_24_0" index="0" allow="motorcycle moped" speed="10.66" length="26.27" width="3.50" shape="1202.58,977.31 1207.44,974.52 1210.03,969.83 1210.34,963.24 1208.39,954.75"/>
    </edge>
    <edge id=":A0_25" function="internal">
        <lane id=":A0_25_0" index="0" allow="motorcycle moped" speed="20.00" length="74.89" width="3.50" shape="1202.58,977.31 1274.33,955.88"/>
    </edge>
    <edge id=":A0_26" function="internal">
        <lane id=":A0_26_0" index="0" allow="motorcycle moped" speed="20.00" length="73.82" width="3.50" shape="1202.58,977.31 1243.68,955.07 1256.67,945.53 1263.32,954.26"/>
    </edge>
    <edge id=":A0_27" function="internal">
        <lane id=":A0_27_0" index="0" allow="motorcycle moped" speed="11.25" length="6.01" width="3.50" shape="1203.61,980.66 1208.43,977.65 1208.56,977.35"/>
    </edge>
    <edge id=":A0_28" function="internal">
        <lane id=":A0_28_0" index="0" allow="private emergency authority army vip passenger hov taxi bus coach delivery truck trailer evehicle custom1 custom2" speed="12.07" length="8.87" width="3.50" shape="1203.61,980.66 1211.19,976.79 1211.40,976.51"/>
    </edge>
    <edge id=":A0_29" function="internal">
        <lane id=":A0_29_0" index="0" disallow="tram rail_urban rail rail_electric rail_fast ship" speed="20.00" length="74.82" width="3.50" shape="1203.61,980.66 1275.32,959.24"/>
        <lane id=":A0_29_1" index="1" allow="private emergency authority army vip passenger hov taxi bus coach delivery truck trailer evehicle custom1 custom2" speed="20.00" length="74.82" width="3.50" shape="1204.64,984.01 1276.31,962.60"/>
    </edge>
    <edge id=":A0_31" function="internal">
        <lane id=":A0_31_0" index="0" allow="private emergency authority army vip passenger hov taxi bus coach delivery truck trailer evehicle custom1 custom2" speed="15.10" length="51.94" width="3.50" shape="1204.64,984.01 1215.56,984.08 1231.49,987.30 1246.26,992.29 1253.70,997.66"/>
    </edge>
    <edge id=":A0_48" function="internal">
        <lane id=":A0_48_0" index="0" allow="motorcycle moped" speed="20.00" length="38.86" width="3.50" shape="1263.32,954.26 1269.75,992.58"/>
    </edge>
    <edge id=":A0_49" function="internal">
        <lane id=":A0_49_0" index="0" allow="motorcycle moped" speed="11.25" length="23.38" width="3.50" shape="1208.56,977.35 1210.83,972.33 1210.82,964.70 1208.39,954.75"/>
    </edge>
    <edge id=":A0_50" function="internal">
        <lane id=":A0_50_0" index="0" allow="private emergency authority army vip passenger hov taxi bus coach delivery truck trailer evehicle custom1 custom2" speed="12.07" length="25.39" width="3.50" shape="1211.40,976.51 1215.53,970.86 1216.62,962.84 1214.46,952.76"/>
    </edge>
    <edge id=":A0_32" function="internal">
        <lane id=":A0_32_0" index="0" allow="motorcycle moped" speed="10.13" length="22.98" width="3.50" shape="1224.73,1006.84 1221.60,1000.35 1217.77,996.21 1213.24,994.41 1208.01,994.96"/>
    </edge>
    <edge id=":A0_33" function="internal">
        <lane id=":A0_33_0" index="0" allow="motorcycle moped" speed="20.00" length="54.59" width="3.50" shape="1224.73,1006.84 1208.39,954.75"/>
    </edge>
    <edge id=":A0_34" function="internal">
        <lane id=":A0_34_0" index="0" allow="motorcycle moped" speed="20.00" length="41.28" width="3.50" shape="1224.73,1006.84 1218.95,995.70 1210.05,983.16 1205.48,975.86 1209.51,973.37"/>
    </edge>
    <edge id=":A0_35" function="internal">
        <lane id=":A0_35_0" index="0" allow="motorcycle moped" speed="10.67" length="5.11" width="3.50" shape="1227.21,1006.05 1224.89,1001.50"/>
        <lane id=":A0_35_1" index="1" disallow="tram rail_urban rail rail_electric rail_fast ship" speed="11.24" length="5.91" width="3.50" shape="1227.21,1006.05 1224.65,1000.73"/>
    </edge>
    <edge id=":A0_37" function="internal">
        <lane id=":A0_37_0" index="0" allow="motorcycle moped" speed="20.00" length="54.65" width="3.50" shape="1227.21,1006.05 1208.39,954.75"/>
    </edge>
    <edge id=":A0_38" function="internal">
        <lane id=":A0_38_0" index="0" allow="private emergency authority army vip passenger hov taxi bus coach delivery truck trailer evehicle custom1 custom2" speed="21.11" length="54.83" width="3.50" shape="1227.21,1006.05 1223.97,994.44 1221.34,981.22 1218.45,967.09 1214.46,952.76"/>
    </edge>
    <edge id=":A0_39" function="internal">
        <lane id=":A0_39_0" index="0" disallow="tram rail_urban rail rail_electric rail_fast ship" speed="11.76" length="8.76" width="3.50" shape="1230.55,1004.99 1226.56,997.19"/>
    </edge>
    <edge id=":A0_40" function="internal">
        <lane id=":A0_40_0" index="0" allow="motorcycle moped" speed="20.00" length="54.91" width="3.50" shape="1230.55,1004.99 1208.39,954.75"/>
    </edge>
    <edge id=":A0_41" function="internal">
        <lane id=":A0_41_0" index="0" allow="private emergency authority army vip passenger hov taxi bus coach delivery truck trailer evehicle custom1 custom2" speed="21.11" length="54.65" width="3.50" shape="1230.55,1004.99 1214.46,952.76"/>
    </edge>
    <edge id=":A0_51" function="internal">
        <lane id=":A0_51_0" index="0" allow="motorcycle moped" speed="20.00" length="67.14" width="3.50" shape="1209.51,973.37 1274.33,955.88"/>
    </edge>
    <edge id=":A0_52" function="internal">
        <lane id=":A0_52_0" index="0" allow="motorcycle moped" speed="10.67" length="19.89" width="3.50" shape="1224.89,1001.50 1223.93,999.62 1219.64,995.63 1214.33,994.07 1208.01,994.96"/>
    </edge>
    <edge id=":A0_53" function="internal">
        <lane id=":A0_53_0" index="0" disallow="tram rail_urban rail rail_electric rail_fast ship" speed="11.24" length="21.93" width="3.50" shape="1224.65,1000.73 1223.42,998.18 1218.78,993.14 1213.30,990.96 1206.98,991.61"/>
    </edge>
    <edge id=":A0_54" function="internal">
        <lane id=":A0_54_0" index="0" disallow="tram rail_urban rail rail_electric rail_fast ship" speed="11.76" length="21.79" width="3.50" shape="1226.56,997.19 1221.29,992.36 1214.77,990.50 1206.98,991.61"/>
    </edge>
    <edge id=":cluster_1253673938_1253674021_0" function="internal">
        <lane id=":cluster_1253673938_1253674021_0_0" index="0" disallow="tram rail_urban rail rail_electric rail_fast ship" speed="20.00" length="3.25" width="3.50" shape="359.62,919.73 358.74,920.47 358.12,920.95 357.45,921.36 356.43,921.89"/>
        <lane id=":cluster_1253673938_1253674021_0_1" index="1" disallow="tram rail_urban rail rail_electric rail_fast ship" speed="20.00" length="3.25" width="3.50" shape="357.50,916.94 356.76,917.57 356.24,917.98 355.68,918.33 354.83,918.78"/>
        <lane id=":cluster_1253673938_1253674021_0_2" index="2" allow="private emergency authority army vip passenger hov taxi bus coach delivery truck trailer evehicle custom1 custom2" speed="20.00" length="3.25" width="3.50" shape="355.37,914.15 354.78,914.66 354.37,915.00 353.92,915.30 353.23,915.67"/>
    </edge>
    <edge id=":cluster_1253673938_1253674021_3" function="internal">