<!-- See https://sumo.dlr.de/docs/Vehicle_Type_Parameter_Defaults.html -->
<additional>
<routes>
    <vType id="car"   vClass="passenger"/>
    <vType id="motor" vClass="moped"/>
    <vType id="truck" vClass="truck"/>
    <vType id="trailer" vClass="trailer"/>
</routes>
</additional>
