<additional>
<routes>
    <vType id="car"   maxSpeed="23" vClass="passenger"/>
    <vType id="motor" maxSpeed="20" vClass="moped"/>
    <vType id="truck" vClass="truck"/>
    <vType id="trailer" vClass="trailer"/>
</routes>
</additional>
