<?xml version="1.0" encoding="UTF-8"?>

<!-- generated on 04/23/21 17:00:11 by Eclipse SUMO netedit Version 1.8.0
<configuration xmlns:xsi="http://www.w3.org/2001/XMLSchema-instance" xsi:noNamespaceSchemaLocation="http://sumo.dlr.de/xsd/netconvertConfiguration.xsd">

    <input>
        <sumo-net-file value="D:\NCHCDrive\qubo\taichung\taichung.net.xml"/>
    </input>

    <output>
        <output-file value="D:\NCHCDrive\qubo\taichung\taichung.net.xml"/>
    </output>

    <processing>
        <geometry.min-radius.fix.railways value="false"/>
        <geometry.max-grade.fix value="false"/>
        <offset.disable-normalization value="true"/>
        <lefthand value="false"/>
    </processing>

    <junctions>
        <no-turnarounds value="true"/>
        <junctions.corner-detail value="5"/>
        <junctions.limit-turn-speed value="5.5"/>
        <rectangular-lane-cut value="false"/>
    </junctions>

    <pedestrian>
        <walkingareas value="false"/>
    </pedestrian>

    <netedit>
        <TLSPrograms-output value="D:\NCHCDrive\qubo\taichung\taichung.tls.xml"/>
    </netedit>

    <report>
        <aggregate-warnings value="5"/>
    </report>

</configuration>
-->

<net version="1.6" junctionCornerDetail="5" limitTurnSpeed="5.50" xmlns:xsi="http://www.w3.org/2001/XMLSchema-instance" xsi:noNamespaceSchemaLocation="http://sumo.dlr.de/xsd/net_file.xsd">

    <location netOffset="-256301.99,-2677904.83" convBoundary="183.25,110.21,1490.14,1341.17" origBoundary="120.600769,24.195076,120.617625,24.210241" projParameter="+proj=utm +zone=51 +ellps=WGS84 +datum=WGS84 +units=m +no_defs"/>

    <edge id=":A0_0" function="internal">
        <lane id=":A0_0_0" index="0" speed="13.89" length="31.98" shape="1027.04,1008.81 1022.00,999.15 1016.44,992.00 1011.55,986.79 1008.53,982.95"/>
    </edge>
    <edge id=":A0_1" function="internal">
        <lane id=":A0_1_0" index="0" speed="13.89" length="31.96" shape="1027.04,1008.81 1023.65,1000.09 1021.30,994.14 1018.69,988.30 1014.56,979.91"/>
        <lane id=":A0_1_1" index="1" speed="13.89" length="31.96" shape="1030.02,1007.64 1026.60,998.84 1024.22,992.83 1021.59,986.94 1017.42,978.48"/>
        <lane id=":A0_1_2" index="2" speed="13.89" length="31.96" shape="1033.00,1006.47 1029.55,997.59 1027.14,991.53 1024.49,985.58 1020.28,977.04"/>
        <lane id=":A0_1_3" index="3" speed="13.89" length="31.96" shape="1033.00,1006.47 1029.98,997.32 1028.58,990.81 1026.92,984.41 1023.14,975.60"/>
    </edge>
    <edge id=":A0_5" function="internal">
        <lane id=":A0_5_0" index="0" speed="12.72" length="39.39" shape="1035.98,1005.30 1033.57,994.88 1035.32,986.34 1041.20,979.69 1051.23,974.92"/>
    </edge>
    <edge id=":A0_6" function="internal">
        <lane id=":A0_6_0" index="0" speed="12.29" length="36.74" shape="1035.98,1005.30 1034.08,996.19 1036.15,988.60 1042.19,982.53 1052.20,977.97"/>
    </edge>
    <edge id=":A0_7" function="internal">
        <lane id=":A0_7_0" index="0" speed="6.46" length="9.33" shape="1056.44,991.27 1054.16,992.38 1052.84,993.97 1052.49,996.04 1053.10,998.60"/>
    </edge>
    <edge id=":A0_8" function="internal">
        <lane id=":A0_8_0" index="0" speed="8.28" length="16.05" shape="1054.19,984.20 1051.87,985.81 1050.92,988.74 1051.33,993.01 1053.10,998.60"/>
    </edge>
    <edge id=":A0_9" function="internal">
        <lane id=":A0_9_0" index="0" speed="9.79" length="22.91" shape="1054.19,984.20 1048.27,986.98 1044.78,990.84 1043.71,995.76 1045.06,1001.75"/>
    </edge>
    <edge id=":A0_10" function="internal">
        <lane id=":A0_10_0" index="0" speed="13.89" length="46.78" shape="1054.19,984.20 1009.08,996.82"/>
        <lane id=":A0_10_1" index="1" speed="13.89" length="46.78" shape="1053.21,981.15 1008.22,993.74"/>
    </edge>
    <edge id=":A0_12" function="internal">
        <lane id=":A0_12_0" index="0" speed="13.28" length="35.88" shape="1053.21,981.15 1041.18,984.05 1031.67,984.33 1024.71,982.00 1020.28,977.04"/>
    </edge>
    <edge id=":A0_13" function="internal">
        <lane id=":A0_13_0" index="0" speed="12.81" length="33.33" shape="1053.21,981.15 1042.51,983.59 1033.93,983.48 1027.48,980.82 1023.14,975.60"/>
    </edge>
    <edge id=":A0_14" function="internal">
        <lane id=":A0_14_0" index="0" speed="6.33" length="7.46" shape="1043.35,965.44 1044.58,967.33 1045.97,968.51 1047.53,968.99 1049.26,968.77"/>
    </edge>
    <edge id=":A0_15" function="internal">
        <lane id=":A0_15_0" index="0" speed="13.89" length="34.57" shape="1043.35,965.44 1045.57,971.85 1048.39,981.95 1051.13,992.08 1053.10,998.60"/>
    </edge>
    <edge id=":A0_16" function="internal">
        <lane id=":A0_16_0" index="0" speed="9.18" length="16.69" shape="1037.62,968.32 1040.25,972.26 1043.39,974.68 1047.05,975.56 1051.23,974.92"/>
    </edge>
    <edge id=":A0_17" function="internal">
        <lane id=":A0_17_0" index="0" speed="13.89" length="34.01" shape="1037.62,968.32 1043.00,978.81 1047.54,987.41 1050.99,994.04 1053.10,998.60"/>
    </edge>
    <edge id=":A0_18" function="internal">
        <lane id=":A0_18_0" index="0" speed="13.89" length="33.55" shape="1037.62,968.32 1041.59,977.53 1043.36,984.21 1044.87,991.01 1048.04,1000.58"/>
        <lane id=":A0_18_1" index="1" speed="13.89" length="33.55" shape="1034.76,969.76 1039.15,978.70 1041.92,984.94 1044.43,991.28 1048.04,1000.58"/>
        <lane id=":A0_18_2" index="2" speed="13.89" length="33.55" shape="1034.76,969.76 1038.69,978.89 1040.44,985.52 1041.92,992.26 1045.06,1001.75"/>
        <lane id=":A0_18_3" index="3" speed="13.89" length="33.55" shape="1031.90,971.20 1035.79,980.25 1037.51,986.82 1038.97,993.51 1042.08,1002.91"/>
        <lane id=":A0_18_4" index="4" speed="13.89" length="33.55" shape="1029.05,972.63 1032.89,981.61 1034.59,988.13 1036.02,994.76 1039.10,1004.08"/>
    </edge>
    <edge id=":A0_23" function="internal">
        <lane id=":A0_23_0" index="0" speed="11.88" length="37.37" shape="1029.05,972.63 1031.17,981.50 1027.92,988.08 1020.24,992.98 1009.08,996.82"/>
    </edge>
    <edge id=":A0_24" function="internal">
        <lane id=":A0_24_0" index="0" speed="11.39" length="34.26" shape="1026.19,974.07 1028.44,982.58 1025.82,988.78 1019.11,993.32 1009.08,996.82"/>
    </edge>
    <edge id=":A0_25" function="internal">
        <lane id=":A0_25_0" index="0" speed="10.91" length="31.35" shape="1026.19,974.07 1027.66,981.11 1024.57,986.43 1017.80,990.50 1008.22,993.74"/>
    </edge>
    <edge id=":A0_26" function="internal">
        <lane id=":A0_26_0" index="0" speed="5.13" length="6.01" shape="1006.50,987.53 1008.05,986.85 1008.90,985.86 1009.06,984.56 1008.53,982.95"/>
    </edge>
    <edge id=":A0_27" function="internal">
        <lane id=":A0_27_0" index="0" speed="7.12" length="12.67" shape="1006.50,987.53 1010.92,985.97 1013.74,984.18 1014.95,982.16 1014.56,979.91"/>
    </edge>
    <edge id=":A0_28" function="internal">
        <lane id=":A0_28_0" index="0" speed="13.89" length="46.72" shape="1006.50,987.53 1016.57,983.69 1029.71,977.72 1041.93,971.96 1049.26,968.77"/>
    </edge>
    <edge id=":A0_29" function="internal">
        <lane id=":A0_29_0" index="0" speed="13.89" length="46.55" shape="1006.50,987.53 1051.23,974.92"/>
        <lane id=":A0_29_1" index="1" speed="13.89" length="46.55" shape="1007.35,990.61 1051.23,974.92"/>
        <lane id=":A0_29_2" index="2" speed="13.89" length="46.55" shape="1007.35,990.61 1052.20,977.97"/>
    </edge>
    <edge id=":A0_32" function="internal">
        <lane id=":A0_32_0" index="0" speed="13.83" length="40.93" shape="1007.35,990.61 1019.63,988.58 1029.52,989.96 1037.00,994.74 1042.08,1002.91"/>
    </edge>
    <edge id=":A0_33" function="internal">
        <lane id=":A0_33_0" index="0" speed="13.41" length="38.44" shape="1007.35,990.61 1018.29,988.98 1027.22,990.68 1034.16,995.71 1039.10,1004.08"/>
    </edge>
    <edge id=":A0_34" function="internal">
        <lane id=":A0_34_0" index="0" speed="9.67" length="19.47" shape="1020.40,1011.41 1017.31,1004.51 1014.39,999.78 1011.65,997.21 1009.08,996.82"/>
    </edge>
    <edge id=":A0_35" function="internal">
        <lane id=":A0_35_0" index="0" speed="13.89" length="30.84" shape="1020.40,1011.41 1008.53,982.95"/>
    </edge>

    <edge id="A0bottom0" from="A0" to="bottom0" priority="-1" shape="1020.03,965.88 828.71,586.44 490.58,121.66">
        <lane id="A0bottom0_0" index="0" speed="13.89" length="1008.74" shape="1014.56,979.91 819.12,592.29 481.52,128.25"/>
        <lane id="A0bottom0_1" index="1" speed="13.89" length="1008.74" shape="1017.42,978.48 821.86,590.62 484.11,126.37"/>
        <lane id="A0bottom0_2" index="2" speed="13.89" length="1008.74" shape="1020.28,977.04 824.60,588.95 486.70,124.48"/>
        <lane id="A0bottom0_3" index="3" speed="13.89" length="1008.74" shape="1023.14,975.60 827.34,587.28 489.29,122.60"/>
    </edge>
    <edge id="A0bottom2" from="A0" to="bottom2" priority="-1" shape="1011.84,985.98 815.89,596.18 475.48,133.22">
        <lane id="A0bottom2_0" index="0" speed="13.89" length="1006.45" shape="1008.53,982.95 814.52,597.02 474.19,134.17"/>
    </edge>
    <edge id="A0left0" from="A0" to="left0" priority="-1" shape="1011.33,991.21 692.21,1080.07 516.15,1110.49 183.25,1122.69">
        <lane id="A0left0_0" index="0" speed="13.89" length="840.14" shape="1009.08,996.82 693.27,1084.76 516.65,1115.27 183.43,1127.49"/>
        <lane id="A0left0_1" index="1" speed="13.89" length="840.14" shape="1008.22,993.74 692.56,1081.63 516.32,1112.08 183.31,1124.29"/>
    </edge>
    <edge id="A0right0" from="A0" to="right0" priority="-1" shape="1052.96,979.41 1490.14,841.16">
        <lane id="A0right0_0" index="0" speed="13.89" length="458.81" shape="1051.23,974.92 1488.69,836.58"/>
        <lane id="A0right0_1" index="1" speed="13.89" length="458.81" shape="1052.20,977.97 1489.66,839.63"/>
    </edge>
    <edge id="A0right2" from="A0" to="right2" priority="-1" shape="1049.75,970.29 1483.58,831.85">
        <lane id="A0right2_0" index="0" speed="13.89" length="455.38" shape="1049.26,968.77 1483.09,830.33"/>
    </edge>
    <edge id="A0top0" from="A0" to="top0" priority="-1" shape="1037.44,1004.23 1167.59,1335.40">
        <lane id="A0top0_0" index="0" speed="13.89" length="355.35" shape="1048.04,1000.58 1178.01,1331.30"/>
        <lane id="A0top0_1" index="1" speed="13.89" length="355.35" shape="1045.06,1001.75 1175.04,1332.47"/>
        <lane id="A0top0_2" index="2" speed="13.89" length="355.35" shape="1042.08,1002.91 1172.06,1333.64"/>
        <lane id="A0top0_3" index="3" speed="13.89" length="355.35" shape="1039.10,1004.08 1169.08,1334.81"/>
    </edge>
    <edge id="A0top2" from="A0" to="top2" priority="-1" shape="1051.61,999.18 1181.37,1330.43">
        <lane id="A0top2_0" index="0" speed="13.89" length="355.76" shape="1053.10,998.60 1182.86,1329.85"/>
    </edge>
    <edge id="bottom0A0" from="bottom0" to="A0" priority="-1" shape="490.58,121.66 829.04,585.27 1020.30,965.92">
        <lane id="bottom0A0_0" index="0" speed="13.89" length="1011.26" shape="502.21,113.17 841.37,577.74 1037.62,968.32"/>
        <lane id="bottom0A0_1" index="1" speed="13.89" length="1011.26" shape="499.63,115.06 838.63,579.41 1034.76,969.76"/>
        <lane id="bottom0A0_2" index="2" speed="13.89" length="1011.26" shape="497.04,116.94 835.89,581.09 1031.90,971.20"/>
        <lane id="bottom0A0_3" index="3" speed="13.89" length="1011.26" shape="494.46,118.83 833.15,582.76 1029.05,972.63"/>
        <lane id="bottom0A0_4" index="4" speed="13.89" length="1011.26" shape="491.87,120.72 830.41,584.43 1026.19,974.07"/>
    </edge>
    <edge id="bottom1A0" from="bottom1" to="A0" priority="-1" shape="504.56,110.21 844.15,576.02 1038.29,958.99">
        <lane id="bottom1A0_0" index="0" speed="13.89" length="1014.12" shape="505.85,109.27 845.52,575.18 1043.35,965.44"/>
    </edge>
    <edge id="left0A0" from="left0" to="A0" priority="-1" shape="183.25,1122.69 516.20,1110.23 691.59,1079.58 1011.12,991.23">
        <lane id="left0A0_0" index="0" speed="13.89" length="838.54" shape="183.07,1117.89 515.69,1105.45 690.53,1074.89 1006.50,987.53"/>
        <lane id="left0A0_1" index="1" speed="13.89" length="838.54" shape="183.19,1121.09 516.03,1108.64 691.24,1078.02 1007.35,990.61"/>
    </edge>
    <edge id="right0A0" from="right0" to="A0" priority="-1" shape="1490.14,841.16 1052.96,979.55">
        <lane id="right0A0_0" index="0" speed="13.89" length="458.80" shape="1491.59,845.74 1054.19,984.20"/>
        <lane id="right0A0_1" index="1" speed="13.89" length="458.80" shape="1490.62,842.69 1053.21,981.15"/>
    </edge>
    <edge id="right1A0" from="right1" to="A0" priority="-1" shape="1482.80,854.96 1055.96,989.74">
        <lane id="right1A0_0" index="0" speed="13.89" length="447.61" shape="1483.28,856.49 1056.44,991.27"/>
    </edge>
    <edge id="top0A0" from="top0" to="A0" priority="-1" shape="1167.59,1335.40 1037.17,1003.97">
        <lane id="top0A0_0" index="0" speed="13.89" length="355.37" shape="1157.17,1339.50 1027.04,1008.81"/>
        <lane id="top0A0_1" index="1" speed="13.89" length="355.37" shape="1160.15,1338.33 1030.02,1007.64"/>
        <lane id="top0A0_2" index="2" speed="13.89" length="355.37" shape="1163.12,1337.16 1033.00,1006.47"/>
        <lane id="top0A0_3" index="3" speed="13.89" length="355.37" shape="1166.10,1335.99 1035.98,1005.30"/>
    </edge>
    <edge id="top1A0" from="top1" to="A0" priority="-1" shape="1153.61,1341.17 1017.74,1000.41">
        <lane id="top1A0_0" index="0" speed="13.89" length="355.65" shape="1152.12,1341.76 1020.40,1011.41"/>
    </edge>

    <tlLogic id="A0" type="static" programID="0" offset="0">
        <phase duration="45" state="GGGGGrrrrrrrrrGGGGGGGGGrrrrrrrrrrrGG"/>
        <phase duration="4"  state="yyyyyrrrrrrrrryyyyyyyyyrrrrrrrrrrryy"/>
        <phase duration="3"  state="rrrrrrrrrrrrrrrrrrrrrrrrrrrrrrrrrrrr"/>
        <phase duration="30" state="rrrrrGGrrrrrrrrrrrrrrrrGGGrrrrrrrrrr"/>
        <phase duration="4"  state="rrrrryyrrrrrrrrrrrrrrrryyyrrrrrrrrrr"/>
        <phase duration="2"  state="rrrrrrrrrrrrrrrrrrrrrrrrrrrrrrrrrrrr"/>
        <phase duration="40" state="rrrrrrrGGGGGrrrrrrrrrrrrrrGGGGGGrrrr"/>
        <phase duration="4"  state="rrrrrrryyyyyrrrrrrrrrrrrrryyyyyyrrrr"/>
        <phase duration="4"  state="rrrrrrrrrrrrrrrrrrrrrrrrrrrrrrrrrrrr"/>
        <phase duration="24" state="rrrrrrrrrrrrGGrrrrrrrrrrrrrrrrrrGGrr"/>
        <phase duration="4"  state="rrrrrrrrrrrryyrrrrrrrrrrrrrrrrrryyrr"/>
        <phase duration="4"  state="rrrrrrrrrrrrrrrrrrrrrrrrrrrrrrrrrrrr"/>
    </tlLogic>

    <junction id="A0" type="traffic_light" x="1034.78" y="985.40" incLanes="top0A0_0 top0A0_1 top0A0_2 top0A0_3 right1A0_0 right0A0_0 right0A0_1 bottom1A0_0 bottom0A0_0 bottom0A0_1 bottom0A0_2 bottom0A0_3 bottom0A0_4 left0A0_0 left0A0_1 top1A0_0" intLanes=":A0_0_0 :A0_1_0 :A0_1_1 :A0_1_2 :A0_1_3 :A0_5_0 :A0_6_0 :A0_7_0 :A0_8_0 :A0_9_0 :A0_10_0 :A0_10_1 :A0_12_0 :A0_13_0 :A0_14_0 :A0_15_0 :A0_16_0 :A0_17_0 :A0_18_0 :A0_18_1 :A0_18_2 :A0_18_3 :A0_18_4 :A0_23_0 :A0_24_0 :A0_25_0 :A0_26_0 :A0_27_0 :A0_28_0 :A0_29_0 :A0_29_1 :A0_29_2 :A0_32_0 :A0_33_0 :A0_34_0 :A0_35_0" shape="1018.91,1011.99 1054.59,998.01 1054.15,995.66 1054.39,994.71 1054.93,993.92 1055.78,993.28 1056.93,992.79 1048.78,967.24 1047.29,967.29 1046.61,966.98 1045.96,966.45 1045.35,965.70 1044.78,964.72 1007.10,983.67 1007.38,984.72 1007.29,985.14 1007.04,985.49 1006.63,985.77 1006.07,985.99 1009.51,998.36 1012.14,999.43 1013.65,1001.27 1015.28,1003.98 1017.03,1007.55" radius="2.00">
        <request index="0"  response="100011110011100000000000000000000000" foes="101111111111100000000000110000000000" cont="0"/>
        <request index="1"  response="000011110011100000000000000000000000" foes="001111111011100000000011110000000000" cont="0"/>
        <request index="2"  response="000011110011100000000000000000000000" foes="001111111011100000000011110000000000" cont="0"/>
        <request index="3"  response="000011110011100000000000000000000000" foes="001111111011100000000011110000000000" cont="0"/>
        <request index="4"  response="000011110011100000000000000000000000" foes="001111111011100000000011110000000000" cont="0"/>
        <request index="5"  response="001111100000011111111000110000000000" foes="001111100000011111111011110000000000" cont="0"/>
        <request index="6"  response="001111100000011111111000110000000000" foes="001111100000011111111011110000000000" cont="0"/>
        <request index="7"  response="000000000000000000101000000000000000" foes="000000000000000000101000000100000000" cont="0"/>
        <request index="8"  response="000000000000000000101000000010000000" foes="000000000000000000101000000010000000" cont="0"/>
        <request index="9"  response="000000000000011111101000000000000000" foes="000000000000011111101000000000000000" cont="0"/>
        <request index="10" response="110000000011111111100000000000011111" foes="111100000011111111101000000001111111" cont="0"/>
        <request index="11" response="110000000011111111100000000000011111" foes="111100000011111111101000000001111111" cont="0"/>
        <request index="12" response="000011110011111111101000000001111110" foes="000011110011111111101000000001111110" cont="0"/>
        <request index="13" response="000011110011111111101000000001111110" foes="000011110011111111101000000001111110" cont="0"/>
        <request index="14" response="000000010000000000000000000000000000" foes="000000010000000000000000000000000000" cont="0"/>
        <request index="15" response="000000000000000000110000110000000000" foes="000011110000000000110011111111100000" cont="0"/>
        <request index="16" response="000000000000000000000000000000000000" foes="000011110000000000001000000001100000" cont="0"/>
        <request index="17" response="000000000000000000000000000000000000" foes="000011110000000000001011111111100000" cont="0"/>
        <request index="18" response="000000000000000010000000000000000000" foes="001111110000000010000011111001100000" cont="0"/>
        <request index="19" response="000000000000000000000000000000000000" foes="001111110000000001000011111001100000" cont="0"/>
        <request index="20" response="000000000000000000000000000000000000" foes="001111110000000000000011111001100000" cont="0"/>
        <request index="21" response="000000000000000000000000000000000000" foes="001111110000000000000011111001100000" cont="0"/>
        <request index="22" response="000000000000000000000000000000000000" foes="001111110000000000000011111001100000" cont="0"/>
        <request index="23" response="110000000001000000000000000000000000" foes="111111110001000000000011110000011111" cont="0"/>
        <request index="24" response="110000000000000000000000000000000000" foes="111111110000100000000011110000011111" cont="0"/>
        <request index="25" response="110000000000000000000000000000000000" foes="111111110000000000000011110000011111" cont="0"/>
        <request index="26" response="100000000000000000000000000000000001" foes="100000000000000000000000000000000001" cont="0"/>
        <request index="27" response="100000000000000000000000000000011111" foes="100000000000000000000000000000011111" cont="0"/>
        <request index="28" response="100000000011111111111000000000000000" foes="100000000011111111111111000000011111" cont="0"/>
        <request index="29" response="100001000011111111111000000000000000" foes="100001000011111111111011000001111111" cont="0"/>
        <request index="30" response="100000000011111111111000000000000000" foes="100000100011111111111011000001111111" cont="0"/>
        <request index="31" response="100000000011111111111000000000000000" foes="100000000011111111111011000001111111" cont="0"/>
        <request index="32" response="100000000011111111000000110000011111" foes="100000000011111111000000110001111111" cont="0"/>
        <request index="33" response="100000000011111111000000110000011111" foes="100000000011111111000000110001111111" cont="0"/>
        <request index="34" response="000000000000000000000000000000000000" foes="000000000011100000000000110000000000" cont="0"/>
        <request index="35" response="000000000000000000000000000000000000" foes="001111111111100000000000110000000001" cont="0"/>
    </junction>
    <junction id="bottom0" type="dead_end" x="490.58" y="121.66" incLanes="A0bottom0_0 A0bottom0_1 A0bottom0_2 A0bottom0_3" intLanes="" shape="490.58,121.66 503.50,112.23 480.23,129.19"/>
    <junction id="bottom1" type="dead_end" x="504.56" y="110.21" incLanes="" intLanes="" shape="504.56,110.21 507.15,108.32"/>
    <junction id="bottom2" type="dead_end" x="475.48" y="133.22" incLanes="A0bottom2_0" intLanes="" shape="472.90,135.12 475.48,133.22"/>
    <junction id="left0" type="dead_end" x="183.25" y="1122.69" incLanes="A0left0_0 A0left0_1" intLanes="" shape="183.25,1122.69 183.01,1116.29 183.48,1129.09"/>
    <junction id="right0" type="dead_end" x="1490.14" y="841.16" incLanes="A0right0_0 A0right0_1" intLanes="" shape="1490.14,841.16 1492.07,847.26 1488.21,835.06"/>
    <junction id="right1" type="dead_end" x="1482.80" y="854.96" incLanes="" intLanes="" shape="1482.80,854.96 1483.76,858.01"/>
    <junction id="right2" type="dead_end" x="1483.58" y="831.85" incLanes="A0right2_0" intLanes="" shape="1482.61,828.80 1483.58,831.85"/>
    <junction id="top0" type="dead_end" x="1167.59" y="1335.40" incLanes="A0top0_0 A0top0_1 A0top0_2 A0top0_3" intLanes="" shape="1167.59,1335.40 1155.68,1340.09 1179.50,1330.72"/>
    <junction id="top1" type="dead_end" x="1153.61" y="1341.17" incLanes="" intLanes="" shape="1153.61,1341.17 1150.64,1342.36"/>
    <junction id="top2" type="dead_end" x="1181.37" y="1330.43" incLanes="A0top2_0" intLanes="" shape="1184.35,1329.26 1181.37,1330.43"/>

    <connection from="bottom0A0" to="A0right0" fromLane="0" toLane="0" via=":A0_16_0" tl="A0" linkIndex="16" dir="R" state="O"/>
    <connection from="bottom0A0" to="A0top2" fromLane="0" toLane="0" via=":A0_17_0" tl="A0" linkIndex="17" dir="s" state="O"/>
    <connection from="bottom0A0" to="A0top0" fromLane="0" toLane="0" via=":A0_18_0" tl="A0" linkIndex="18" dir="s" state="o"/>
    <connection from="bottom0A0" to="A0top0" fromLane="1" toLane="0" via=":A0_18_1" tl="A0" linkIndex="19" dir="s" state="O"/>
    <connection from="bottom0A0" to="A0top0" fromLane="1" toLane="1" via=":A0_18_2" tl="A0" linkIndex="20" dir="s" state="O"/>
    <connection from="bottom0A0" to="A0top0" fromLane="2" toLane="2" via=":A0_18_3" tl="A0" linkIndex="21" dir="s" state="O"/>
    <connection from="bottom0A0" to="A0top0" fromLane="3" toLane="3" via=":A0_18_4" tl="A0" linkIndex="22" dir="s" state="O"/>
    <connection from="bottom0A0" to="A0left0" fromLane="3" toLane="0" via=":A0_23_0" tl="A0" linkIndex="23" dir="l" state="o"/>
    <connection from="bottom0A0" to="A0left0" fromLane="4" toLane="0" via=":A0_24_0" tl="A0" linkIndex="24" dir="l" state="o"/>
    <connection from="bottom0A0" to="A0left0" fromLane="4" toLane="1" via=":A0_25_0" tl="A0" linkIndex="25" dir="l" state="o"/>
    <connection from="bottom1A0" to="A0right2" fromLane="0" toLane="0" via=":A0_14_0" tl="A0" linkIndex="14" dir="r" state="o"/>
    <connection from="bottom1A0" to="A0top2" fromLane="0" toLane="0" via=":A0_15_0" tl="A0" linkIndex="15" dir="s" state="o"/>
    <connection from="left0A0" to="A0bottom2" fromLane="0" toLane="0" via=":A0_26_0" tl="A0" linkIndex="26" dir="r" state="o"/>
    <connection from="left0A0" to="A0bottom0" fromLane="0" toLane="0" via=":A0_27_0" tl="A0" linkIndex="27" dir="r" state="o"/>
    <connection from="left0A0" to="A0right2" fromLane="0" toLane="0" via=":A0_28_0" tl="A0" linkIndex="28" dir="s" state="o"/>
    <connection from="left0A0" to="A0right0" fromLane="0" toLane="0" via=":A0_29_0" tl="A0" linkIndex="29" dir="s" state="o"/>
    <connection from="left0A0" to="A0right0" fromLane="1" toLane="0" via=":A0_29_1" tl="A0" linkIndex="30" dir="s" state="o"/>
    <connection from="left0A0" to="A0right0" fromLane="1" toLane="1" via=":A0_29_2" tl="A0" linkIndex="31" dir="s" state="o"/>
    <connection from="left0A0" to="A0top0" fromLane="1" toLane="2" via=":A0_32_0" tl="A0" linkIndex="32" dir="l" state="o"/>
    <connection from="left0A0" to="A0top0" fromLane="1" toLane="3" via=":A0_33_0" tl="A0" linkIndex="33" dir="l" state="o"/>
    <connection from="right0A0" to="A0top2" fromLane="0" toLane="0" via=":A0_8_0" tl="A0" linkIndex="8" dir="r" state="o"/>
    <connection from="right0A0" to="A0top0" fromLane="0" toLane="1" via=":A0_9_0" tl="A0" linkIndex="9" dir="r" state="o"/>
    <connection from="right0A0" to="A0left0" fromLane="0" toLane="0" via=":A0_10_0" tl="A0" linkIndex="10" dir="s" state="o"/>
    <connection from="right0A0" to="A0left0" fromLane="1" toLane="1" via=":A0_10_1" tl="A0" linkIndex="11" dir="s" state="o"/>
    <connection from="right0A0" to="A0bottom0" fromLane="1" toLane="2" via=":A0_12_0" tl="A0" linkIndex="12" dir="L" state="o"/>
    <connection from="right0A0" to="A0bottom0" fromLane="1" toLane="3" via=":A0_13_0" tl="A0" linkIndex="13" dir="L" state="o"/>
    <connection from="right1A0" to="A0top2" fromLane="0" toLane="0" via=":A0_7_0" tl="A0" linkIndex="7" dir="r" state="o"/>
    <connection from="top0A0" to="A0bottom2" fromLane="0" toLane="0" via=":A0_0_0" tl="A0" linkIndex="0" dir="s" state="o"/>
    <connection from="top0A0" to="A0bottom0" fromLane="0" toLane="0" via=":A0_1_0" tl="A0" linkIndex="1" dir="s" state="o"/>
    <connection from="top0A0" to="A0bottom0" fromLane="1" toLane="1" via=":A0_1_1" tl="A0" linkIndex="2" dir="s" state="o"/>
    <connection from="top0A0" to="A0bottom0" fromLane="2" toLane="2" via=":A0_1_2" tl="A0" linkIndex="3" dir="s" state="o"/>
    <connection from="top0A0" to="A0bottom0" fromLane="2" toLane="3" via=":A0_1_3" tl="A0" linkIndex="4" dir="s" state="o"/>
    <connection from="top0A0" to="A0right0" fromLane="3" toLane="0" via=":A0_5_0" tl="A0" linkIndex="5" dir="l" state="o"/>
    <connection from="top0A0" to="A0right0" fromLane="3" toLane="1" via=":A0_6_0" tl="A0" linkIndex="6" dir="l" state="o"/>
    <connection from="top1A0" to="A0left0" fromLane="0" toLane="0" via=":A0_34_0" tl="A0" linkIndex="34" dir="r" state="O"/>
    <connection from="top1A0" to="A0bottom2" fromLane="0" toLane="0" via=":A0_35_0" tl="A0" linkIndex="35" dir="s" state="O"/>

    <connection from=":A0_0" to="A0bottom2" fromLane="0" toLane="0" dir="s" state="M"/>
    <connection from=":A0_1" to="A0bottom0" fromLane="0" toLane="0" dir="s" state="M"/>
    <connection from=":A0_1" to="A0bottom0" fromLane="1" toLane="1" dir="s" state="M"/>
    <connection from=":A0_1" to="A0bottom0" fromLane="2" toLane="2" dir="s" state="M"/>
    <connection from=":A0_1" to="A0bottom0" fromLane="3" toLane="3" dir="s" state="M"/>
    <connection from=":A0_5" to="A0right0" fromLane="0" toLane="0" dir="l" state="M"/>
    <connection from=":A0_6" to="A0right0" fromLane="0" toLane="1" dir="l" state="M"/>
    <connection from=":A0_7" to="A0top2" fromLane="0" toLane="0" dir="r" state="M"/>
    <connection from=":A0_8" to="A0top2" fromLane="0" toLane="0" dir="r" state="M"/>
    <connection from=":A0_9" to="A0top0" fromLane="0" toLane="1" dir="r" state="M"/>
    <connection from=":A0_10" to="A0left0" fromLane="0" toLane="0" dir="s" state="M"/>
    <connection from=":A0_10" to="A0left0" fromLane="1" toLane="1" dir="s" state="M"/>
    <connection from=":A0_12" to="A0bottom0" fromLane="0" toLane="2" dir="L" state="M"/>
    <connection from=":A0_13" to="A0bottom0" fromLane="0" toLane="3" dir="L" state="M"/>
    <connection from=":A0_14" to="A0right2" fromLane="0" toLane="0" dir="r" state="M"/>
    <connection from=":A0_15" to="A0top2" fromLane="0" toLane="0" dir="s" state="M"/>
    <connection from=":A0_16" to="A0right0" fromLane="0" toLane="0" dir="R" state="M"/>
    <connection from=":A0_17" to="A0top2" fromLane="0" toLane="0" dir="s" state="M"/>
    <connection from=":A0_18" to="A0top0" fromLane="0" toLane="0" dir="s" state="M"/>
    <connection from=":A0_18" to="A0top0" fromLane="1" toLane="0" dir="s" state="M"/>
    <connection from=":A0_18" to="A0top0" fromLane="2" toLane="1" dir="s" state="M"/>
    <connection from=":A0_18" to="A0top0" fromLane="3" toLane="2" dir="s" state="M"/>
    <connection from=":A0_18" to="A0top0" fromLane="4" toLane="3" dir="s" state="M"/>
    <connection from=":A0_23" to="A0left0" fromLane="0" toLane="0" dir="l" state="M"/>
    <connection from=":A0_24" to="A0left0" fromLane="0" toLane="0" dir="l" state="M"/>
    <connection from=":A0_25" to="A0left0" fromLane="0" toLane="1" dir="l" state="M"/>
    <connection from=":A0_26" to="A0bottom2" fromLane="0" toLane="0" dir="r" state="M"/>
    <connection from=":A0_27" to="A0bottom0" fromLane="0" toLane="0" dir="r" state="M"/>
    <connection from=":A0_28" to="A0right2" fromLane="0" toLane="0" dir="s" state="M"/>
    <connection from=":A0_29" to="A0right0" fromLane="0" toLane="0" dir="s" state="M"/>
    <connection from=":A0_29" to="A0right0" fromLane="1" toLane="0" dir="s" state="M"/>
    <connection from=":A0_29" to="A0right0" fromLane="2" toLane="1" dir="s" state="M"/>
    <connection from=":A0_32" to="A0top0" fromLane="0" toLane="2" dir="l" state="M"/>
    <connection from=":A0_33" to="A0top0" fromLane="0" toLane="3" dir="l" state="M"/>
    <connection from=":A0_34" to="A0left0" fromLane="0" toLane="0" dir="r" state="M"/>
    <connection from=":A0_35" to="A0bottom2" fromLane="0" toLane="0" dir="s" state="M"/>

</net>
