<?xml version="1.0" encoding="UTF-8"?>

<!-- generated on 05/12/21 15:51:42 by Eclipse SUMO netedit Version 1.8.0
<configuration xmlns:xsi="http://www.w3.org/2001/XMLSchema-instance" xsi:noNamespaceSchemaLocation="http://sumo.dlr.de/xsd/netconvertConfiguration.xsd">

    <input>
        <sumo-net-file value="D:\NCHCDrive\qubo\two_stage\motor.net.xml"/>
    </input>

    <output>
        <output-file value="D:\NCHCDrive\qubo\two_stage\motor.net.xml"/>
    </output>

    <processing>
        <geometry.min-radius.fix.railways value="false"/>
        <geometry.max-grade.fix value="false"/>
        <offset.disable-normalization value="true"/>
        <lefthand value="false"/>
    </processing>

    <junctions>
        <no-turnarounds value="true"/>
        <junctions.corner-detail value="5"/>
        <junctions.limit-turn-speed value="5.5"/>
        <rectangular-lane-cut value="false"/>
        <check-lane-foes.all value="true"/>
    </junctions>

    <pedestrian>
        <walkingareas value="false"/>
    </pedestrian>

    <report>
        <aggregate-warnings value="5"/>
    </report>

</configuration>
-->

<net version="1.6" junctionCornerDetail="5" limitTurnSpeed="5.50" checkLaneFoesAll="1" xmlns:xsi="http://www.w3.org/2001/XMLSchema-instance" xsi:noNamespaceSchemaLocation="http://sumo.dlr.de/xsd/net_file.xsd">

    <location netOffset="0.00,0.00" convBoundary="0.00,0.00,1000.00,1000.00" origBoundary="0.00,0.00,1000.00,1000.00" projParameter="!"/>

    <edge id=":A0_0" function="internal">
        <lane id=":A0_0_0" index="0" allow="motorcycle moped" speed="9.47" length="20.30" shape="487.20,525.13 486.40,519.74 483.99,515.88 479.98,513.57 474.36,512.80"/>
    </edge>
    <edge id=":A0_1" function="internal">
        <lane id=":A0_1_0" index="0" allow="motorcycle moped" speed="20.00" length="50.49" shape="487.20,525.13 487.20,474.64"/>
    </edge>
    <edge id=":A0_2" function="internal">
        <lane id=":A0_2_0" index="0" allow="motorcycle moped" speed="19.34" length="46.00" shape="486.47,525.21 484.18,505.16 479.44,494.66 475.95,486.71 481.57,486.73"/>
    </edge>
    <edge id=":A0_3" function="internal">
        <lane id=":A0_3_0" index="0" allow="private emergency authority army vip passenger hov taxi bus coach delivery truck trailer evehicle custom1 custom2" speed="10.56" length="8.00" shape="490.40,525.13 489.40,518.34 488.80,517.37"/>
    </edge>
    <edge id=":A0_4" function="internal">
        <lane id=":A0_4_0" index="0" allow="private emergency authority army vip passenger hov taxi bus coach delivery truck trailer evehicle custom1 custom2" speed="20.00" length="50.48" shape="490.40,525.13 490.40,474.64"/>
        <lane id=":A0_4_1" index="1" allow="private emergency authority army vip passenger hov taxi bus coach delivery truck trailer evehicle custom1 custom2" speed="20.00" length="50.48" shape="493.60,525.13 493.60,474.65"/>
        <lane id=":A0_4_2" index="2" allow="private emergency authority army vip passenger hov taxi bus coach delivery truck trailer evehicle custom1 custom2" speed="20.00" length="50.48" shape="496.80,525.13 496.80,474.66"/>
    </edge>
    <edge id=":A0_7" function="internal">
        <lane id=":A0_7_0" index="0" allow="private emergency authority army vip passenger hov taxi bus coach delivery truck trailer evehicle custom1 custom2" speed="13.47" length="9.97" shape="500.00,525.13 501.19,515.23"/>
    </edge>
    <edge id=":A0_32" function="internal">
        <lane id=":A0_32_0" index="0" allow="motorcycle moped" speed="19.34" length="41.97" shape="481.57,486.73 523.54,486.91"/>
    </edge>
    <edge id=":A0_33" function="internal">
        <lane id=":A0_33_0" index="0" allow="private emergency authority army vip passenger hov taxi bus coach delivery truck trailer evehicle custom1 custom2" speed="10.56" length="17.47" shape="488.80,517.37 486.39,513.48 481.37,510.57 474.34,509.60"/>
    </edge>
    <edge id=":A0_34" function="internal">
        <lane id=":A0_34_0" index="0" allow="private emergency authority army vip passenger hov taxi bus coach delivery truck trailer evehicle custom1 custom2" speed="13.47" length="32.16" shape="501.19,515.23 501.49,512.74 505.96,503.88 513.40,498.57 523.83,496.80"/>
    </edge>
    <edge id=":A0_8" function="internal">
        <lane id=":A0_8_0" index="0" allow="motorcycle moped" speed="9.14" length="18.85" shape="523.83,512.80 519.00,513.57 515.56,515.88 513.49,519.74 512.80,525.13"/>
    </edge>
    <edge id=":A0_9" function="internal">
        <lane id=":A0_9_0" index="0" allow="motorcycle moped" speed="20.00" length="49.47" shape="523.83,512.80 474.36,512.80"/>
    </edge>
    <edge id=":A0_10" function="internal">
        <lane id=":A0_10_0" index="0" allow="motorcycle moped" speed="19.53" length="46.00" shape="523.83,513.52 503.36,515.11 498.03,517.16 491.21,520.99 486.39,524.63 486.40,518.73"/>
    </edge>
    <edge id=":A0_11" function="internal">
        <lane id=":A0_11_0" index="0" allow="private emergency authority army vip passenger hov taxi bus coach delivery truck trailer evehicle custom1 custom2" speed="10.26" length="7.45" shape="523.83,509.60 517.60,510.57 516.64,511.20"/>
    </edge>
    <edge id=":A0_12" function="internal">
        <lane id=":A0_12_0" index="0" allow="private emergency authority army vip passenger hov taxi bus coach delivery truck trailer evehicle custom1 custom2" speed="20.00" length="49.50" shape="523.83,509.60 474.34,509.60"/>
        <lane id=":A0_12_1" index="1" allow="private emergency authority army vip passenger hov taxi bus coach delivery truck trailer evehicle custom1 custom2" speed="20.00" length="49.50" shape="523.83,506.40 474.33,506.40"/>
        <lane id=":A0_12_2" index="2" allow="private emergency authority army vip passenger hov taxi bus coach delivery truck trailer evehicle custom1 custom2" speed="20.00" length="49.50" shape="523.83,503.20 474.31,503.20"/>
    </edge>
    <edge id=":A0_15" function="internal">
        <lane id=":A0_15_0" index="0" allow="private emergency authority army vip passenger hov taxi bus coach delivery truck trailer evehicle custom1 custom2" speed="13.49" length="11.93" shape="523.83,500.00 512.00,498.42"/>
    </edge>
    <edge id=":A0_35" function="internal">
        <lane id=":A0_35_0" index="0" allow="motorcycle moped" speed="19.53" length="43.69" shape="486.40,518.73 486.48,475.04"/>
    </edge>
    <edge id=":A0_36" function="internal">
        <lane id=":A0_36_0" index="0" allow="private emergency authority army vip passenger hov taxi bus coach delivery truck trailer evehicle custom1 custom2" speed="10.26" length="16.56" shape="516.64,511.20 513.16,513.48 510.49,518.34 509.60,525.13"/>
    </edge>
    <edge id=":A0_37" function="internal">
        <lane id=":A0_37_0" index="0" allow="private emergency authority army vip passenger hov taxi bus coach delivery truck trailer evehicle custom1 custom2" speed="13.49" length="30.31" shape="512.00,498.42 503.56,493.66 498.49,485.75 496.80,474.66"/>
    </edge>
    <edge id=":A0_16" function="internal">
        <lane id=":A0_16_0" index="0" allow="motorcycle moped" speed="9.18" length="18.99" shape="512.80,474.70 513.49,480.17 515.56,484.07 519.00,486.42 523.83,487.20"/>
    </edge>
    <edge id=":A0_17" function="internal">
        <lane id=":A0_17_0" index="0" allow="motorcycle moped" speed="20.00" length="50.43" shape="512.80,474.70 512.80,525.13"/>
    </edge>
    <edge id=":A0_18" function="internal">
        <lane id=":A0_18_0" index="0" allow="motorcycle moped" speed="19.30" length="45.00" shape="512.80,474.70 516.46,495.20 519.20,506.58 522.38,513.60 517.62,513.61"/>
    </edge>
    <edge id=":A0_19" function="internal">
        <lane id=":A0_19_0" index="0" allow="private emergency authority army vip passenger hov taxi bus coach delivery truck trailer evehicle custom1 custom2" speed="10.29" length="8.42" shape="509.60,474.69 510.49,481.56 511.20,482.87"/>
    </edge>
    <edge id=":A0_20" function="internal">
        <lane id=":A0_20_0" index="0" allow="private emergency authority army vip passenger hov taxi bus coach delivery truck trailer evehicle custom1 custom2" speed="20.00" length="50.45" shape="509.60,474.69 509.60,525.13"/>
        <lane id=":A0_20_1" index="1" allow="private emergency authority army vip passenger hov taxi bus coach delivery truck trailer evehicle custom1 custom2" speed="20.00" length="50.45" shape="506.40,474.68 506.40,525.13"/>
        <lane id=":A0_20_2" index="2" allow="private emergency authority army vip passenger hov taxi bus coach delivery truck trailer evehicle custom1 custom2" speed="20.00" length="50.45" shape="503.20,474.67 503.20,525.13"/>
    </edge>
    <edge id=":A0_23" function="internal">
        <lane id=":A0_23_0" index="0" allow="private emergency authority army vip passenger hov taxi bus coach delivery truck trailer evehicle custom1 custom2" speed="13.72" length="10.63" shape="500.00,474.67 498.64,485.21"/>
    </edge>
    <edge id=":A0_38" function="internal">
        <lane id=":A0_38_0" index="0" allow="motorcycle moped" speed="19.30" length="42.60" shape="517.62,513.61 505.34,513.64 475.02,513.60"/>
    </edge>
    <edge id=":A0_39" function="internal">
        <lane id=":A0_39_0" index="0" allow="private emergency authority army vip passenger hov taxi bus coach delivery truck trailer evehicle custom1 custom2" speed="10.29" length="15.74" shape="511.20,482.87 513.16,486.47 517.60,489.42 523.83,490.40"/>
    </edge>
    <edge id=":A0_40" function="internal">
        <lane id=":A0_40_0" index="0" allow="private emergency authority army vip passenger hov taxi bus coach delivery truck trailer evehicle custom1 custom2" speed="13.72" length="33.12" shape="498.64,485.21 498.39,487.15 493.58,496.07 485.55,501.42 474.31,503.20"/>
    </edge>
    <edge id=":A0_24" function="internal">
        <lane id=":A0_24_0" index="0" allow="motorcycle moped" speed="9.53" length="20.58" shape="474.24,487.20 479.91,486.41 483.96,484.06 486.39,480.13 487.20,474.64"/>
    </edge>
    <edge id=":A0_25" function="internal">
        <lane id=":A0_25_0" index="0" allow="motorcycle moped" speed="20.00" length="49.59" shape="474.24,487.20 523.83,487.20"/>
    </edge>
    <edge id=":A0_26" function="internal">
        <lane id=":A0_26_0" index="0" allow="motorcycle moped" speed="19.47" length="47.00" shape="474.24,487.20 499.14,483.38 512.94,476.53 512.92,482.93"/>
    </edge>
    <edge id=":A0_27" function="internal">
        <lane id=":A0_27_0" index="0" allow="private emergency authority army vip passenger hov taxi bus coach delivery truck trailer evehicle custom1 custom2" speed="10.61" length="8.35" shape="474.25,490.40 481.32,489.42 482.37,488.80"/>
    </edge>
    <edge id=":A0_28" function="internal">
        <lane id=":A0_28_0" index="0" allow="private emergency authority army vip passenger hov taxi bus coach delivery truck trailer evehicle custom1 custom2" speed="20.00" length="49.56" shape="474.25,490.40 523.83,490.40"/>
        <lane id=":A0_28_1" index="1" allow="private emergency authority army vip passenger hov taxi bus coach delivery truck trailer evehicle custom1 custom2" speed="20.00" length="49.56" shape="474.27,493.60 523.83,493.60"/>
        <lane id=":A0_28_2" index="2" allow="private emergency authority army vip passenger hov taxi bus coach delivery truck trailer evehicle custom1 custom2" speed="20.00" length="49.56" shape="474.28,496.80 523.83,496.80"/>
    </edge>
    <edge id=":A0_31" function="internal">
        <lane id=":A0_31_0" index="0" allow="private emergency authority army vip passenger hov taxi bus coach delivery truck trailer evehicle custom1 custom2" speed="13.70" length="12.74" shape="474.30,500.00 486.94,501.57"/>
    </edge>
    <edge id=":A0_41" function="internal">
        <lane id=":A0_41_0" index="0" allow="motorcycle moped" speed="19.47" length="42.20" shape="512.92,482.93 512.80,525.13"/>
    </edge>
    <edge id=":A0_42" function="internal">
        <lane id=":A0_42_0" index="0" allow="private emergency authority army vip passenger hov taxi bus coach delivery truck trailer evehicle custom1 custom2" speed="10.61" length="17.38" shape="482.37,488.80 486.36,486.46 489.39,481.54 490.40,474.64"/>
    </edge>
    <edge id=":A0_43" function="internal">
        <lane id=":A0_43_0" index="0" allow="private emergency authority army vip passenger hov taxi bus coach delivery truck trailer evehicle custom1 custom2" speed="13.70" length="30.87" shape="486.94,501.57 495.97,506.28 501.39,514.14 503.20,525.13"/>
    </edge>
    <edge id=":bottom0A0.350.00_0" function="internal">
        <lane id=":bottom0A0.350.00_0_0" index="0" allow="motorcycle moped" speed="20.00" length="8.16" shape="512.80,346.00 512.80,354.00"/>
        <lane id=":bottom0A0.350.00_0_1" index="1" allow="private emergency authority army vip passenger hov taxi bus coach delivery truck trailer evehicle custom1 custom2" speed="20.00" length="8.16" shape="509.60,346.00 509.60,354.00"/>
        <lane id=":bottom0A0.350.00_0_2" index="2" allow="private emergency authority army vip passenger hov taxi bus coach delivery truck trailer evehicle custom1 custom2" speed="20.00" length="8.16" shape="506.40,346.00 506.40,354.00"/>
        <lane id=":bottom0A0.350.00_0_3" index="3" allow="private emergency authority army vip passenger hov taxi bus coach delivery truck trailer evehicle custom1 custom2" speed="20.00" length="8.16" shape="503.20,346.00 503.20,354.00"/>
        <lane id=":bottom0A0.350.00_0_4" index="4" allow="private emergency authority army vip passenger hov taxi bus coach delivery truck trailer evehicle custom1 custom2" speed="20.00" length="8.16" shape="503.20,346.00 502.70,348.46 501.60,350.00 500.50,351.54 500.00,354.00"/>
    </edge>
    <edge id=":left0A0.350.00_0" function="internal">
        <lane id=":left0A0.350.00_0_0" index="0" allow="motorcycle moped" speed="20.00" length="8.16" shape="346.00,487.20 354.00,487.20"/>
        <lane id=":left0A0.350.00_0_1" index="1" allow="private emergency authority army vip passenger hov taxi bus coach delivery truck trailer evehicle custom1 custom2" speed="20.00" length="8.16" shape="346.00,490.40 354.00,490.40"/>
        <lane id=":left0A0.350.00_0_2" index="2" allow="private emergency authority army vip passenger hov taxi bus coach delivery truck trailer evehicle custom1 custom2" speed="20.00" length="8.16" shape="346.00,493.60 354.00,493.60"/>
        <lane id=":left0A0.350.00_0_3" index="3" allow="private emergency authority army vip passenger hov taxi bus coach delivery truck trailer evehicle custom1 custom2" speed="20.00" length="8.16" shape="346.00,496.80 354.00,496.80"/>
        <lane id=":left0A0.350.00_0_4" index="4" allow="private emergency authority army vip passenger hov taxi bus coach delivery truck trailer evehicle custom1 custom2" speed="20.00" length="8.16" shape="346.00,496.80 348.46,497.30 350.00,498.40 351.54,499.50 354.00,500.00"/>
    </edge>
    <edge id=":right0A0.350.00_0" function="internal">
        <lane id=":right0A0.350.00_0_0" index="0" allow="motorcycle moped" speed="20.00" length="8.16" shape="654.00,512.80 646.00,512.80"/>
        <lane id=":right0A0.350.00_0_1" index="1" allow="private emergency authority army vip passenger hov taxi bus coach delivery truck trailer evehicle custom1 custom2" speed="20.00" length="8.16" shape="654.00,509.60 646.00,509.60"/>
        <lane id=":right0A0.350.00_0_2" index="2" allow="private emergency authority army vip passenger hov taxi bus coach delivery truck trailer evehicle custom1 custom2" speed="20.00" length="8.16" shape="654.00,506.40 646.00,506.40"/>
        <lane id=":right0A0.350.00_0_3" index="3" allow="private emergency authority army vip passenger hov taxi bus coach delivery truck trailer evehicle custom1 custom2" speed="20.00" length="8.16" shape="654.00,503.20 646.00,503.20"/>
        <lane id=":right0A0.350.00_0_4" index="4" allow="private emergency authority army vip passenger hov taxi bus coach delivery truck trailer evehicle custom1 custom2" speed="20.00" length="8.16" shape="654.00,503.20 651.54,502.70 650.00,501.60 648.46,500.50 646.00,500.00"/>
    </edge>
    <edge id=":top0A0.350.00_0" function="internal">
        <lane id=":top0A0.350.00_0_0" index="0" allow="motorcycle moped" speed="20.00" length="8.16" shape="487.20,654.00 487.20,646.00"/>
        <lane id=":top0A0.350.00_0_1" index="1" allow="private emergency authority army vip passenger hov taxi bus coach delivery truck trailer evehicle custom1 custom2" speed="20.00" length="8.16" shape="490.40,654.00 490.40,646.00"/>
        <lane id=":top0A0.350.00_0_2" index="2" allow="private emergency authority army vip passenger hov taxi bus coach delivery truck trailer evehicle custom1 custom2" speed="20.00" length="8.16" shape="493.60,654.00 493.60,646.00"/>
        <lane id=":top0A0.350.00_0_3" index="3" allow="private emergency authority army vip passenger hov taxi bus coach delivery truck trailer evehicle custom1 custom2" speed="20.00" length="8.16" shape="496.80,654.00 496.80,646.00"/>
        <lane id=":top0A0.350.00_0_4" index="4" allow="private emergency authority army vip passenger hov taxi bus coach delivery truck trailer evehicle custom1 custom2" speed="20.00" length="8.16" shape="496.80,654.00 497.30,651.54 498.40,650.00 499.50,648.46 500.00,646.00"/>
    </edge>

    <edge id="A0bottom0" from="A0" to="bottom0" priority="-1" shape="498.40,500.00 498.40,0.00">
        <lane id="A0bottom0_0" index="0" allow="motorcycle moped" speed="20.00" length="474.65" shape="487.20,474.64 487.20,0.00"/>
        <lane id="A0bottom0_1" index="1" allow="private emergency authority army vip passenger hov taxi bus coach delivery truck trailer evehicle custom1 custom2" speed="20.00" length="474.65" shape="490.40,474.64 490.40,0.00"/>
        <lane id="A0bottom0_2" index="2" allow="private emergency authority army vip passenger hov taxi bus coach delivery truck trailer evehicle custom1 custom2" speed="20.00" length="474.65" shape="493.60,474.65 493.60,0.00"/>
        <lane id="A0bottom0_3" index="3" allow="private emergency authority army vip passenger hov taxi bus coach delivery truck trailer evehicle custom1 custom2" speed="20.00" length="474.65" shape="496.80,474.66 496.80,0.00"/>
    </edge>
    <edge id="A0left0" from="A0" to="left0" priority="-1" shape="500.00,501.60 0.00,501.60">
        <lane id="A0left0_0" index="0" allow="motorcycle moped" speed="20.00" length="474.34" shape="474.36,512.80 0.00,512.80"/>
        <lane id="A0left0_1" index="1" allow="private emergency authority army vip passenger hov taxi bus coach delivery truck trailer evehicle custom1 custom2" speed="20.00" length="474.34" shape="474.34,509.60 0.00,509.60"/>
        <lane id="A0left0_2" index="2" allow="private emergency authority army vip passenger hov taxi bus coach delivery truck trailer evehicle custom1 custom2" speed="20.00" length="474.34" shape="474.33,506.40 0.00,506.40"/>
        <lane id="A0left0_3" index="3" allow="private emergency authority army vip passenger hov taxi bus coach delivery truck trailer evehicle custom1 custom2" speed="20.00" length="474.34" shape="474.31,503.20 0.00,503.20"/>
    </edge>
    <edge id="A0right0" from="A0" to="right0" priority="-1" shape="500.00,498.40 1000.00,498.40">
        <lane id="A0right0_0" index="0" allow="motorcycle moped" speed="20.00" length="476.17" shape="523.83,487.20 1000.00,487.20"/>
        <lane id="A0right0_1" index="1" allow="private emergency authority army vip passenger hov taxi bus coach delivery truck trailer evehicle custom1 custom2" speed="20.00" length="476.17" shape="523.83,490.40 1000.00,490.40"/>
        <lane id="A0right0_2" index="2" allow="private emergency authority army vip passenger hov taxi bus coach delivery truck trailer evehicle custom1 custom2" speed="20.00" length="476.17" shape="523.83,493.60 1000.00,493.60"/>
        <lane id="A0right0_3" index="3" allow="private emergency authority army vip passenger hov taxi bus coach delivery truck trailer evehicle custom1 custom2" speed="20.00" length="476.17" shape="523.83,496.80 1000.00,496.80"/>
    </edge>
    <edge id="A0top0" from="A0" to="top0" priority="-1" shape="501.60,500.00 501.60,1000.00">
        <lane id="A0top0_0" index="0" allow="motorcycle moped" speed="20.00" length="474.87" shape="512.80,525.13 512.80,1000.00"/>
        <lane id="A0top0_1" index="1" allow="private emergency authority army vip passenger hov taxi bus coach delivery truck trailer evehicle custom1 custom2" speed="20.00" length="474.87" shape="509.60,525.13 509.60,1000.00"/>
        <lane id="A0top0_2" index="2" allow="private emergency authority army vip passenger hov taxi bus coach delivery truck trailer evehicle custom1 custom2" speed="20.00" length="474.87" shape="506.40,525.13 506.40,1000.00"/>
        <lane id="A0top0_3" index="3" allow="private emergency authority army vip passenger hov taxi bus coach delivery truck trailer evehicle custom1 custom2" speed="20.00" length="474.87" shape="503.20,525.13 503.20,1000.00"/>
    </edge>
    <edge id="bottom0A0" from="bottom0" to="bottom0A0.350.00" priority="-1" shape="501.60,0.00 501.60,350.00">
        <lane id="bottom0A0_0" index="0" allow="motorcycle moped" speed="20.00" length="346.00" shape="512.80,0.00 512.80,346.00"/>
        <lane id="bottom0A0_1" index="1" speed="20.00" length="346.00" shape="509.60,0.00 509.60,346.00"/>
        <lane id="bottom0A0_2" index="2" speed="20.00" length="346.00" shape="506.40,0.00 506.40,346.00"/>
        <lane id="bottom0A0_3" index="3" speed="20.00" length="346.00" shape="503.20,0.00 503.20,346.00"/>
    </edge>
    <edge id="bottom0A0.350.00" from="bottom0A0.350.00" to="A0" priority="-1" shape="498.40,350.00 498.40,500.00">
        <lane id="bottom0A0.350.00_0" index="0" allow="motorcycle moped" speed="20.00" length="120.68" shape="512.80,354.00 512.80,474.70"/>
        <lane id="bottom0A0.350.00_1" index="1" allow="private emergency authority army vip passenger hov taxi bus coach delivery truck trailer evehicle custom1 custom2" speed="20.00" length="120.68" shape="509.60,354.00 509.60,474.69"/>
        <lane id="bottom0A0.350.00_2" index="2" allow="private emergency authority army vip passenger hov taxi bus coach delivery truck trailer evehicle custom1 custom2" speed="20.00" length="120.68" shape="506.40,354.00 506.40,474.68"/>
        <lane id="bottom0A0.350.00_3" index="3" allow="private emergency authority army vip passenger hov taxi bus coach delivery truck trailer evehicle custom1 custom2" speed="20.00" length="120.68" shape="503.20,354.00 503.20,474.67"/>
        <lane id="bottom0A0.350.00_4" index="4" allow="private emergency authority army vip passenger hov taxi bus coach delivery truck trailer evehicle custom1 custom2" speed="20.00" length="120.68" shape="500.00,354.00 500.00,474.67"/>
    </edge>
    <edge id="left0A0" from="left0" to="left0A0.350.00" priority="-1" shape="0.00,498.40 350.00,498.40">
        <lane id="left0A0_0" index="0" allow="motorcycle moped" speed="20.00" length="346.00" shape="0.00,487.20 346.00,487.20"/>
        <lane id="left0A0_1" index="1" speed="20.00" length="346.00" shape="0.00,490.40 346.00,490.40"/>
        <lane id="left0A0_2" index="2" speed="20.00" length="346.00" shape="0.00,493.60 346.00,493.60"/>
        <lane id="left0A0_3" index="3" speed="20.00" length="346.00" shape="0.00,496.80 346.00,496.80"/>
    </edge>
    <edge id="left0A0.350.00" from="left0A0.350.00" to="A0" priority="-1" shape="350.00,501.60 500.00,501.60">
        <lane id="left0A0.350.00_0" index="0" allow="motorcycle moped" speed="20.00" length="120.27" shape="354.00,487.20 474.24,487.20"/>
        <lane id="left0A0.350.00_1" index="1" allow="private emergency authority army vip passenger hov taxi bus coach delivery truck trailer evehicle custom1 custom2" speed="20.00" length="120.27" shape="354.00,490.40 474.25,490.40"/>
        <lane id="left0A0.350.00_2" index="2" allow="private emergency authority army vip passenger hov taxi bus coach delivery truck trailer evehicle custom1 custom2" speed="20.00" length="120.27" shape="354.00,493.60 474.27,493.60"/>
        <lane id="left0A0.350.00_3" index="3" allow="private emergency authority army vip passenger hov taxi bus coach delivery truck trailer evehicle custom1 custom2" speed="20.00" length="120.27" shape="354.00,496.80 474.28,496.80"/>
        <lane id="left0A0.350.00_4" index="4" allow="private emergency authority army vip passenger hov taxi bus coach delivery truck trailer evehicle custom1 custom2" speed="20.00" length="120.27" shape="354.00,500.00 474.30,500.00"/>
    </edge>
    <edge id="right0A0" from="right0" to="right0A0.350.00" priority="-1" shape="1000.00,501.60 650.00,501.60">
        <lane id="right0A0_0" index="0" allow="motorcycle moped" speed="20.00" length="346.00" shape="1000.00,512.80 654.00,512.80"/>
        <lane id="right0A0_1" index="1" speed="20.00" length="346.00" shape="1000.00,509.60 654.00,509.60"/>
        <lane id="right0A0_2" index="2" speed="20.00" length="346.00" shape="1000.00,506.40 654.00,506.40"/>
        <lane id="right0A0_3" index="3" speed="20.00" length="346.00" shape="1000.00,503.20 654.00,503.20"/>
    </edge>
    <edge id="right0A0.350.00" from="right0A0.350.00" to="A0" priority="-1" shape="650.00,498.40 526.98,498.40 500.00,498.40">
        <lane id="right0A0.350.00_0" index="0" allow="motorcycle moped" speed="20.00" length="122.17" shape="646.00,512.80 526.98,512.80 523.83,512.80"/>
        <lane id="right0A0.350.00_1" index="1" allow="private emergency authority army vip passenger hov taxi bus coach delivery truck trailer evehicle custom1 custom2" speed="20.00" length="122.17" shape="646.00,509.60 526.98,509.60 523.83,509.60"/>
        <lane id="right0A0.350.00_2" index="2" allow="private emergency authority army vip passenger hov taxi bus coach delivery truck trailer evehicle custom1 custom2" speed="20.00" length="122.17" shape="646.00,506.40 526.98,506.40 523.83,506.40"/>
        <lane id="right0A0.350.00_3" index="3" allow="private emergency authority army vip passenger hov taxi bus coach delivery truck trailer evehicle custom1 custom2" speed="20.00" length="122.17" shape="646.00,503.20 526.98,503.20 523.83,503.20"/>
        <lane id="right0A0.350.00_4" index="4" allow="private emergency authority army vip passenger hov taxi bus coach delivery truck trailer evehicle custom1 custom2" speed="20.00" length="122.17" shape="646.00,500.00 526.98,500.00 523.83,500.00"/>
    </edge>
    <edge id="top0A0" from="top0" to="top0A0.350.00" priority="-1" shape="498.40,1000.00 498.40,650.00">
        <lane id="top0A0_0" index="0" allow="motorcycle moped" speed="20.00" length="346.00" shape="487.20,1000.00 487.20,654.00"/>
        <lane id="top0A0_1" index="1" speed="20.00" length="346.00" shape="490.40,1000.00 490.40,654.00"/>
        <lane id="top0A0_2" index="2" speed="20.00" length="346.00" shape="493.60,1000.00 493.60,654.00"/>
        <lane id="top0A0_3" index="3" speed="20.00" length="346.00" shape="496.80,1000.00 496.80,654.00"/>
    </edge>
    <edge id="top0A0.350.00" from="top0A0.350.00" to="A0" priority="-1" shape="501.60,650.00 501.60,500.00">
        <lane id="top0A0.350.00_0" index="0" allow="motorcycle moped" speed="20.00" length="120.87" shape="487.20,646.00 487.20,525.13"/>
        <lane id="top0A0.350.00_1" index="1" allow="private emergency authority army vip passenger hov taxi bus coach delivery truck trailer evehicle custom1 custom2" speed="20.00" length="120.87" shape="490.40,646.00 490.40,525.13"/>
        <lane id="top0A0.350.00_2" index="2" allow="private emergency authority army vip passenger hov taxi bus coach delivery truck trailer evehicle custom1 custom2" speed="20.00" length="120.87" shape="493.60,646.00 493.60,525.13"/>
        <lane id="top0A0.350.00_3" index="3" allow="private emergency authority army vip passenger hov taxi bus coach delivery truck trailer evehicle custom1 custom2" speed="20.00" length="120.87" shape="496.80,646.00 496.80,525.13"/>
        <lane id="top0A0.350.00_4" index="4" allow="private emergency authority army vip passenger hov taxi bus coach delivery truck trailer evehicle custom1 custom2" speed="20.00" length="120.87" shape="500.00,646.00 500.00,525.13"/>
    </edge>

    <tlLogic id="A0" type="static" programID="0" offset="0">
        <phase duration="29" state="GGggGGGrrrrrrrrrGGggGGGrrrrrrrrr"/>
        <phase duration="5"  state="yyyyyyyrrrrrrrrryyyyyyyrrrrrrrrr"/>
        <phase duration="6"  state="rrrrrrrGrrrrrrrrrrrrrrrGrrrrrrrr"/>
        <phase duration="5"  state="rrrrrrryrrrrrrrrrrrrrrryrrrrrrrr"/>
        <phase duration="29" state="rrrrrrrrGGggGGGrrrrrrrrrGGggGGGr"/>
        <phase duration="5"  state="rrrrrrrryyyyyyyrrrrrrrrryyyyyyyr"/>
        <phase duration="6"  state="rrrrrrrrrrrrrrrGrrrrrrrrrrrrrrrG"/>
        <phase duration="5"  state="rrrrrrrrrrrrrrryrrrrrrrrrrrrrrry"/>
    </tlLogic>
